/*--------------------------------*- C++ -*----------------------------------*\
| =========                 |                                                 |
| \\      /  F ield         | OpenFOAM: The Open Source CFD Toolbox           |
|  \\    /   O peration     | Version:  plus                                  |
|   \\  /    A nd           | Web:      www.OpenFOAM.com                      |
|    \\/     M anipulation  |                                                 |
\*---------------------------------------------------------------------------*/
FoamFile
{
    version     2.0;
    format      ascii;
    class       volScalarField;
    object      k;
}
// * * * * * * * * * * * * * * * * * * * * * * * * * * * * * * * * * * * * * //

#include        "include/initialConditions"

dimensions      [ 0 2 -2 0 0 0 0 ];

internalField   uniform 0.24;

boundaryField
{
    #includeEtc "caseDicts/setConstraintTypes"

    overset
    {
        type            overset;
    }

    seed
    {
        type            kqRWallFunction;
        value           uniform 0.24;
    }

    inlet
    {
        type            fixedValue;
        value           uniform 0.24;
    }

    outlet
    {
        type            zeroGradient;
    }

    wall
    {
        type            kqRWallFunction;
        value           uniform 0.24;
    }
    ".*"
    {
        type            zeroGradient;
    }
}

// ************************************************************************* //
