/*--------------------------------*- C++ -*----------------------------------*\
| =========                 |                                                 |
| \\      /  F ield         | OpenFOAM: The Open Source CFD Toolbox           |
|  \\    /   O peration     | Version:  2406                                  |
|   \\  /    A nd           | Website:  www.openfoam.com                      |
|    \\/     M anipulation  |                                                 |
\*---------------------------------------------------------------------------*/
FoamFile
{
    version     2.0;
    format      binary;
    arch        "LSB;label=32;scalar=64";
    class       polyBoundaryMesh;
    location    "constant/polyMesh";
    object      boundary;
}
// * * * * * * * * * * * * * * * * * * * * * * * * * * * * * * * * * * * * * //

7
(
    oversetPatch
    {
        type            overset;
        inGroups        1(overset);
        nFaces          787;
        startFace       58769;
    }
    seed
    {
        type            wall;
        inGroups        2(seed wall);
        nFaces          1412;
        startFace       59556;
    }
    procBoundary16to0
    {
        type            processor;
        inGroups        1(processor);
        nFaces          570;
        startFace       60968;
        matchTolerance  0.0001;
        transform       unknown;
        myProcNo        16;
        neighbProcNo    0;
    }
    procBoundary16to8
    {
        type            processor;
        inGroups        1(processor);
        nFaces          2007;
        startFace       61538;
        matchTolerance  0.0001;
        transform       unknown;
        myProcNo        16;
        neighbProcNo    8;
    }
    procBoundary16to17
    {
        type            processor;
        inGroups        1(processor);
        nFaces          404;
        startFace       63545;
        matchTolerance  0.0001;
        transform       unknown;
        myProcNo        16;
        neighbProcNo    17;
    }
    procBoundary16to24
    {
        type            processor;
        inGroups        1(processor);
        nFaces          570;
        startFace       63949;
        matchTolerance  0.0001;
        transform       unknown;
        myProcNo        16;
        neighbProcNo    24;
    }
    procBoundary16to26
    {
        type            processor;
        inGroups        1(processor);
        nFaces          2265;
        startFace       64519;
        matchTolerance  0.0001;
        transform       unknown;
        myProcNo        16;
        neighbProcNo    26;
    }
)

// ************************************************************************* //
