/*--------------------------------*- C++ -*----------------------------------*\
| =========                 |                                                 |
| \\      /  F ield         | OpenFOAM: The Open Source CFD Toolbox           |
|  \\    /   O peration     | Version:  2406                                  |
|   \\  /    A nd           | Website:  www.openfoam.com                      |
|    \\/     M anipulation  |                                                 |
\*---------------------------------------------------------------------------*/
FoamFile
{
    version     2.0;
    format      binary;
    arch        "LSB;label=32;scalar=64";
    class       polyBoundaryMesh;
    location    "constant/polyMesh";
    object      boundary;
}
// * * * * * * * * * * * * * * * * * * * * * * * * * * * * * * * * * * * * * //

6
(
    oversetPatch
    {
        type            overset;
        inGroups        1(overset);
        nFaces          2256;
        startFace       57480;
    }
    seed
    {
        type            wall;
        inGroups        2(seed wall);
        nFaces          0;
        startFace       59736;
    }
    procBoundary24to16
    {
        type            processor;
        inGroups        1(processor);
        nFaces          570;
        startFace       59736;
        matchTolerance  0.0001;
        transform       unknown;
        myProcNo        24;
        neighbProcNo    16;
    }
    procBoundary24to17
    {
        type            processor;
        inGroups        1(processor);
        nFaces          104;
        startFace       60306;
        matchTolerance  0.0001;
        transform       unknown;
        myProcNo        24;
        neighbProcNo    17;
    }
    procBoundary24to25
    {
        type            processor;
        inGroups        1(processor);
        nFaces          730;
        startFace       60410;
        matchTolerance  0.0001;
        transform       unknown;
        myProcNo        24;
        neighbProcNo    25;
    }
    procBoundary24to26
    {
        type            processor;
        inGroups        1(processor);
        nFaces          864;
        startFace       61140;
        matchTolerance  0.0001;
        transform       unknown;
        myProcNo        24;
        neighbProcNo    26;
    }
)

// ************************************************************************* //
