/*--------------------------------*- C++ -*----------------------------------*\
| =========                 |                                                 |
| \\      /  F ield         | OpenFOAM: The Open Source CFD Toolbox           |
|  \\    /   O peration     | Version:  2406                                  |
|   \\  /    A nd           | Website:  www.openfoam.com                      |
|    \\/     M anipulation  |                                                 |
\*---------------------------------------------------------------------------*/
FoamFile
{
    version     2.0;
    format      ascii;
    arch        "LSB;label=32;scalar=64";
    class       polyBoundaryMesh;
    location    "constant/polyMesh";
    object      boundary;
}
// * * * * * * * * * * * * * * * * * * * * * * * * * * * * * * * * * * * * * //

12
(
    wall
    {
        type            wall;
        inGroups        1(wall);
        nFaces          0;
        startFace       85682;
    }
    inlet
    {
        type            patch;
        nFaces          0;
        startFace       85682;
    }
    outlet
    {
        type            patch;
        nFaces          0;
        startFace       85682;
    }
    oversetPatch
    {
        type            overset;
        inGroups        1(overset);
        nFaces          0;
        startFace       85682;
    }
    seed
    {
        type            wall;
        inGroups        2(seed wall);
        nFaces          11866;
        startFace       85682;
    }
    procBoundary4to1
    {
        type            processor;
        inGroups        1(processor);
        nFaces          826;
        startFace       97548;
        matchTolerance  0.0001;
        transform       unknown;
        myProcNo        4;
        neighbProcNo    1;
    }
    procBoundary4to2
    {
        type            processor;
        inGroups        1(processor);
        nFaces          151;
        startFace       98374;
        matchTolerance  0.0001;
        transform       unknown;
        myProcNo        4;
        neighbProcNo    2;
    }
    procBoundary4to3
    {
        type            processor;
        inGroups        1(processor);
        nFaces          118;
        startFace       98525;
        matchTolerance  0.0001;
        transform       unknown;
        myProcNo        4;
        neighbProcNo    3;
    }
    procBoundary4to5
    {
        type            processor;
        inGroups        1(processor);
        nFaces          507;
        startFace       98643;
        matchTolerance  0.0001;
        transform       unknown;
        myProcNo        4;
        neighbProcNo    5;
    }
    procBoundary4to7
    {
        type            processor;
        inGroups        1(processor);
        nFaces          182;
        startFace       99150;
        matchTolerance  0.0001;
        transform       unknown;
        myProcNo        4;
        neighbProcNo    7;
    }
    procBoundary4to8
    {
        type            processor;
        inGroups        1(processor);
        nFaces          14;
        startFace       99332;
        matchTolerance  0.0001;
        transform       unknown;
        myProcNo        4;
        neighbProcNo    8;
    }
    procBoundary4to10
    {
        type            processor;
        inGroups        1(processor);
        nFaces          4869;
        startFace       99346;
        matchTolerance  0.0001;
        transform       unknown;
        myProcNo        4;
        neighbProcNo    10;
    }
)

// ************************************************************************* //
