/*--------------------------------*- C++ -*----------------------------------*\
| =========                 |                                                 |
| \\      /  F ield         | OpenFOAM: The Open Source CFD Toolbox           |
|  \\    /   O peration     | Version:  2406                                  |
|   \\  /    A nd           | Website:  www.openfoam.com                      |
|    \\/     M anipulation  |                                                 |
\*---------------------------------------------------------------------------*/
FoamFile
{
    version     2.0;
    format      binary;
    arch        "LSB;label=32;scalar=64";
    class       polyBoundaryMesh;
    location    "constant/polyMesh";
    object      boundary;
}
// * * * * * * * * * * * * * * * * * * * * * * * * * * * * * * * * * * * * * //

16
(
    oversetPatch
    {
        type            overset;
        inGroups        1(overset);
        nFaces          553;
        startFace       79782;
    }
    seed
    {
        type            wall;
        inGroups        2(seed wall);
        nFaces          4927;
        startFace       80335;
    }
    procBoundary9to0
    {
        type            processor;
        inGroups        1(processor);
        nFaces          36;
        startFace       85262;
        matchTolerance  0.0001;
        transform       unknown;
        myProcNo        9;
        neighbProcNo    0;
    }
    procBoundary9to1
    {
        type            processor;
        inGroups        1(processor);
        nFaces          1877;
        startFace       85298;
        matchTolerance  0.0001;
        transform       unknown;
        myProcNo        9;
        neighbProcNo    1;
    }
    procBoundary9to2
    {
        type            processor;
        inGroups        1(processor);
        nFaces          72;
        startFace       87175;
        matchTolerance  0.0001;
        transform       unknown;
        myProcNo        9;
        neighbProcNo    2;
    }
    procBoundary9to3
    {
        type            processor;
        inGroups        1(processor);
        nFaces          304;
        startFace       87247;
        matchTolerance  0.0001;
        transform       unknown;
        myProcNo        9;
        neighbProcNo    3;
    }
    procBoundary9to4
    {
        type            processor;
        inGroups        1(processor);
        nFaces          239;
        startFace       87551;
        matchTolerance  0.0001;
        transform       unknown;
        myProcNo        9;
        neighbProcNo    4;
    }
    procBoundary9to8
    {
        type            processor;
        inGroups        1(processor);
        nFaces          132;
        startFace       87790;
        matchTolerance  0.0001;
        transform       unknown;
        myProcNo        9;
        neighbProcNo    8;
    }
    procBoundary9to10
    {
        type            processor;
        inGroups        1(processor);
        nFaces          20;
        startFace       87922;
        matchTolerance  0.0001;
        transform       unknown;
        myProcNo        9;
        neighbProcNo    10;
    }
    procBoundary9to11
    {
        type            processor;
        inGroups        1(processor);
        nFaces          714;
        startFace       87942;
        matchTolerance  0.0001;
        transform       unknown;
        myProcNo        9;
        neighbProcNo    11;
    }
    procBoundary9to12
    {
        type            processor;
        inGroups        1(processor);
        nFaces          34;
        startFace       88656;
        matchTolerance  0.0001;
        transform       unknown;
        myProcNo        9;
        neighbProcNo    12;
    }
    procBoundary9to16
    {
        type            processor;
        inGroups        1(processor);
        nFaces          135;
        startFace       88690;
        matchTolerance  0.0001;
        transform       unknown;
        myProcNo        9;
        neighbProcNo    16;
    }
    procBoundary9to17
    {
        type            processor;
        inGroups        1(processor);
        nFaces          662;
        startFace       88825;
        matchTolerance  0.0001;
        transform       unknown;
        myProcNo        9;
        neighbProcNo    17;
    }
    procBoundary9to18
    {
        type            processor;
        inGroups        1(processor);
        nFaces          25;
        startFace       89487;
        matchTolerance  0.0001;
        transform       unknown;
        myProcNo        9;
        neighbProcNo    18;
    }
    procBoundary9to19
    {
        type            processor;
        inGroups        1(processor);
        nFaces          849;
        startFace       89512;
        matchTolerance  0.0001;
        transform       unknown;
        myProcNo        9;
        neighbProcNo    19;
    }
    procBoundary9to20
    {
        type            processor;
        inGroups        1(processor);
        nFaces          4;
        startFace       90361;
        matchTolerance  0.0001;
        transform       unknown;
        myProcNo        9;
        neighbProcNo    20;
    }
)

// ************************************************************************* //
