/*--------------------------------*- C++ -*----------------------------------*\
| =========                 |                                                 |
| \\      /  F ield         | OpenFOAM: The Open Source CFD Toolbox           |
|  \\    /   O peration     | Version:  2406                                  |
|   \\  /    A nd           | Website:  www.openfoam.com                      |
|    \\/     M anipulation  |                                                 |
\*---------------------------------------------------------------------------*/
FoamFile
{
    version     2.0;
    format      binary;
    arch        "LSB;label=32;scalar=64";
    class       polyBoundaryMesh;
    location    "constant/polyMesh";
    object      boundary;
}
// * * * * * * * * * * * * * * * * * * * * * * * * * * * * * * * * * * * * * //

9
(
    oversetPatch
    {
        type            overset;
        inGroups        1(overset);
        nFaces          50;
        startFace       59576;
    }
    seed
    {
        type            wall;
        inGroups        2(seed wall);
        nFaces          5451;
        startFace       59626;
    }
    procBoundary9to0
    {
        type            processor;
        inGroups        1(processor);
        nFaces          28;
        startFace       65077;
        matchTolerance  0.0001;
        transform       unknown;
        myProcNo        9;
        neighbProcNo    0;
    }
    procBoundary9to1
    {
        type            processor;
        inGroups        1(processor);
        nFaces          1580;
        startFace       65105;
        matchTolerance  0.0001;
        transform       unknown;
        myProcNo        9;
        neighbProcNo    1;
    }
    procBoundary9to2
    {
        type            processor;
        inGroups        1(processor);
        nFaces          48;
        startFace       66685;
        matchTolerance  0.0001;
        transform       unknown;
        myProcNo        9;
        neighbProcNo    2;
    }
    procBoundary9to3
    {
        type            processor;
        inGroups        1(processor);
        nFaces          431;
        startFace       66733;
        matchTolerance  0.0001;
        transform       unknown;
        myProcNo        9;
        neighbProcNo    3;
    }
    procBoundary9to4
    {
        type            processor;
        inGroups        1(processor);
        nFaces          246;
        startFace       67164;
        matchTolerance  0.0001;
        transform       unknown;
        myProcNo        9;
        neighbProcNo    4;
    }
    procBoundary9to11
    {
        type            processor;
        inGroups        1(processor);
        nFaces          719;
        startFace       67410;
        matchTolerance  0.0001;
        transform       unknown;
        myProcNo        9;
        neighbProcNo    11;
    }
    procBoundary9to17
    {
        type            processor;
        inGroups        1(processor);
        nFaces          2055;
        startFace       68129;
        matchTolerance  0.0001;
        transform       unknown;
        myProcNo        9;
        neighbProcNo    17;
    }
)

// ************************************************************************* //
