/*--------------------------------*- C++ -*----------------------------------*\
| =========                 |                                                 |
| \\      /  F ield         | OpenFOAM: The Open Source CFD Toolbox           |
|  \\    /   O peration     | Version:  2406                                  |
|   \\  /    A nd           | Website:  www.openfoam.com                      |
|    \\/     M anipulation  |                                                 |
\*---------------------------------------------------------------------------*/
FoamFile
{
    version     2.0;
    format      ascii;
    arch        "LSB;label=32;scalar=64";
    class       polyBoundaryMesh;
    location    "constant/polyMesh";
    object      boundary;
}
// * * * * * * * * * * * * * * * * * * * * * * * * * * * * * * * * * * * * * //

11
(
    wall
    {
        type            wall;
        inGroups        1(wall);
        nFaces          1350;
        startFace       85770;
    }
    inlet
    {
        type            patch;
        nFaces          0;
        startFace       87120;
    }
    outlet
    {
        type            patch;
        nFaces          225;
        startFace       87120;
    }
    oversetPatch
    {
        type            overset;
        inGroups        1(overset);
        nFaces          1575;
        startFace       87345;
    }
    seed
    {
        type            wall;
        inGroups        2(seed wall);
        nFaces          2082;
        startFace       88920;
    }
    procBoundary9to0
    {
        type            processor;
        inGroups        1(processor);
        nFaces          1;
        startFace       91002;
        matchTolerance  0.0001;
        transform       unknown;
        myProcNo        9;
        neighbProcNo    0;
    }
    procBoundary9to3
    {
        type            processor;
        inGroups        1(processor);
        nFaces          4219;
        startFace       91003;
        matchTolerance  0.0001;
        transform       unknown;
        myProcNo        9;
        neighbProcNo    3;
    }
    procBoundary9to6
    {
        type            processor;
        inGroups        1(processor);
        nFaces          1653;
        startFace       95222;
        matchTolerance  0.0001;
        transform       unknown;
        myProcNo        9;
        neighbProcNo    6;
    }
    procBoundary9to7
    {
        type            processor;
        inGroups        1(processor);
        nFaces          19;
        startFace       96875;
        matchTolerance  0.0001;
        transform       unknown;
        myProcNo        9;
        neighbProcNo    7;
    }
    procBoundary9to10
    {
        type            processor;
        inGroups        1(processor);
        nFaces          151;
        startFace       96894;
        matchTolerance  0.0001;
        transform       unknown;
        myProcNo        9;
        neighbProcNo    10;
    }
    procBoundary9to11
    {
        type            processor;
        inGroups        1(processor);
        nFaces          1348;
        startFace       97045;
        matchTolerance  0.0001;
        transform       unknown;
        myProcNo        9;
        neighbProcNo    11;
    }
)

// ************************************************************************* //
