/*--------------------------------*- C++ -*----------------------------------*\
| =========                 |                                                 |
| \\      /  F ield         | OpenFOAM: The Open Source CFD Toolbox           |
|  \\    /   O peration     | Version:  2406                                  |
|   \\  /    A nd           | Website:  www.openfoam.com                      |
|    \\/     M anipulation  |                                                 |
\*---------------------------------------------------------------------------*/
FoamFile
{
    version     2.0;
    format      ascii;
    arch        "LSB;label=32;scalar=64";
    class       polyBoundaryMesh;
    location    "constant/polyMesh";
    object      boundary;
}
// * * * * * * * * * * * * * * * * * * * * * * * * * * * * * * * * * * * * * //

19
(
    wall
    {
        type            patch;
        nFaces          200;
        startFace       80013;
    }
    inlet
    {
        type            wall;
        inGroups        1(wall);
        nFaces          0;
        startFace       80213;
    }
    outlet
    {
        type            wall;
        inGroups        1(wall);
        nFaces          0;
        startFace       80213;
    }
    oversetPatch
    {
        type            overset;
        inGroups        1(overset);
        nFaces          2031;
        startFace       80213;
    }
    seed
    {
        type            wall;
        inGroups        2(seed wall);
        nFaces          0;
        startFace       82244;
    }
    procBoundary9to0
    {
        type            processor;
        inGroups        1(processor);
        nFaces          35;
        startFace       82244;
        matchTolerance  0.0001;
        transform       unknown;
        myProcNo        9;
        neighbProcNo    0;
    }
    procBoundary9to1
    {
        type            processor;
        inGroups        1(processor);
        nFaces          1274;
        startFace       82279;
        matchTolerance  0.0001;
        transform       unknown;
        myProcNo        9;
        neighbProcNo    1;
    }
    procBoundary9to2
    {
        type            processor;
        inGroups        1(processor);
        nFaces          18;
        startFace       83553;
        matchTolerance  0.0001;
        transform       unknown;
        myProcNo        9;
        neighbProcNo    2;
    }
    procBoundary9to3
    {
        type            processor;
        inGroups        1(processor);
        nFaces          250;
        startFace       83571;
        matchTolerance  0.0001;
        transform       unknown;
        myProcNo        9;
        neighbProcNo    3;
    }
    procBoundary9to8
    {
        type            processor;
        inGroups        1(processor);
        nFaces          1018;
        startFace       83821;
        matchTolerance  0.0001;
        transform       unknown;
        myProcNo        9;
        neighbProcNo    8;
    }
    procBoundary9to10
    {
        type            processor;
        inGroups        1(processor);
        nFaces          4;
        startFace       84839;
        matchTolerance  0.0001;
        transform       unknown;
        myProcNo        9;
        neighbProcNo    10;
    }
    procBoundary9to11
    {
        type            processor;
        inGroups        1(processor);
        nFaces          49;
        startFace       84843;
        matchTolerance  0.0001;
        transform       unknown;
        myProcNo        9;
        neighbProcNo    11;
    }
    procBoundary9to15
    {
        type            processor;
        inGroups        1(processor);
        nFaces          92;
        startFace       84892;
        matchTolerance  0.0001;
        transform       unknown;
        myProcNo        9;
        neighbProcNo    15;
    }
    procBoundary9to16
    {
        type            processor;
        inGroups        1(processor);
        nFaces          69;
        startFace       84984;
        matchTolerance  0.0001;
        transform       unknown;
        myProcNo        9;
        neighbProcNo    16;
    }
    procBoundary9to17
    {
        type            processor;
        inGroups        1(processor);
        nFaces          1265;
        startFace       85053;
        matchTolerance  0.0001;
        transform       unknown;
        myProcNo        9;
        neighbProcNo    17;
    }
    procBoundary9to19
    {
        type            processor;
        inGroups        1(processor);
        nFaces          24;
        startFace       86318;
        matchTolerance  0.0001;
        transform       unknown;
        myProcNo        9;
        neighbProcNo    19;
    }
    procBoundary9to26
    {
        type            processor;
        inGroups        1(processor);
        nFaces          4;
        startFace       86342;
        matchTolerance  0.0001;
        transform       unknown;
        myProcNo        9;
        neighbProcNo    26;
    }
    procBoundary9to27
    {
        type            processor;
        inGroups        1(processor);
        nFaces          1103;
        startFace       86346;
        matchTolerance  0.0001;
        transform       unknown;
        myProcNo        9;
        neighbProcNo    27;
    }
    procBoundary9to29
    {
        type            processor;
        inGroups        1(processor);
        nFaces          4;
        startFace       87449;
        matchTolerance  0.0001;
        transform       unknown;
        myProcNo        9;
        neighbProcNo    29;
    }
)

// ************************************************************************* //
