/*--------------------------------*- C++ -*----------------------------------*\
| =========                 |                                                 |
| \\      /  F ield         | OpenFOAM: The Open Source CFD Toolbox           |
|  \\    /   O peration     | Version:  2406                                  |
|   \\  /    A nd           | Website:  www.openfoam.com                      |
|    \\/     M anipulation  |                                                 |
\*---------------------------------------------------------------------------*/
FoamFile
{
    version     2.0;
    format      ascii;
    arch        "LSB;label=32;scalar=64";
    class       polyBoundaryMesh;
    location    "constant/polyMesh";
    object      boundary;
}
// * * * * * * * * * * * * * * * * * * * * * * * * * * * * * * * * * * * * * //

12
(
    wall
    {
        type            wall;
        inGroups        1(wall);
        nFaces          1350;
        startFace       86006;
    }
    inlet
    {
        type            patch;
        nFaces          0;
        startFace       87356;
    }
    outlet
    {
        type            patch;
        nFaces          225;
        startFace       87356;
    }
    oversetPatch
    {
        type            overset;
        inGroups        1(overset);
        nFaces          1575;
        startFace       87581;
    }
    seed
    {
        type            wall;
        inGroups        2(seed wall);
        nFaces          2163;
        startFace       89156;
    }
    procBoundary8to2
    {
        type            processor;
        inGroups        1(processor);
        nFaces          2946;
        startFace       91319;
        matchTolerance  0.0001;
        transform       unknown;
        myProcNo        8;
        neighbProcNo    2;
    }
    procBoundary8to4
    {
        type            processor;
        inGroups        1(processor);
        nFaces          14;
        startFace       94265;
        matchTolerance  0.0001;
        transform       unknown;
        myProcNo        8;
        neighbProcNo    4;
    }
    procBoundary8to5
    {
        type            processor;
        inGroups        1(processor);
        nFaces          230;
        startFace       94279;
        matchTolerance  0.0001;
        transform       unknown;
        myProcNo        8;
        neighbProcNo    5;
    }
    procBoundary8to6
    {
        type            processor;
        inGroups        1(processor);
        nFaces          1348;
        startFace       94509;
        matchTolerance  0.0001;
        transform       unknown;
        myProcNo        8;
        neighbProcNo    6;
    }
    procBoundary8to7
    {
        type            processor;
        inGroups        1(processor);
        nFaces          155;
        startFace       95857;
        matchTolerance  0.0001;
        transform       unknown;
        myProcNo        8;
        neighbProcNo    7;
    }
    procBoundary8to10
    {
        type            processor;
        inGroups        1(processor);
        nFaces          201;
        startFace       96012;
        matchTolerance  0.0001;
        transform       unknown;
        myProcNo        8;
        neighbProcNo    10;
    }
    procBoundary8to11
    {
        type            processor;
        inGroups        1(processor);
        nFaces          1578;
        startFace       96213;
        matchTolerance  0.0001;
        transform       unknown;
        myProcNo        8;
        neighbProcNo    11;
    }
)

// ************************************************************************* //
