/*--------------------------------*- C++ -*----------------------------------*\
| =========                 |                                                 |
| \\      /  F ield         | OpenFOAM: The Open Source CFD Toolbox           |
|  \\    /   O peration     | Version:  2406                                  |
|   \\  /    A nd           | Website:  www.openfoam.com                      |
|    \\/     M anipulation  |                                                 |
\*---------------------------------------------------------------------------*/
FoamFile
{
    version     2.0;
    format      binary;
    arch        "LSB;label=32;scalar=64";
    class       polyBoundaryMesh;
    location    "constant/polyMesh";
    object      boundary;
}
// * * * * * * * * * * * * * * * * * * * * * * * * * * * * * * * * * * * * * //

5
(
    oversetPatch
    {
        type            overset;
        inGroups        1(overset);
        nFaces          2744;
        startFace       76946;
    }
    seed
    {
        type            wall;
        inGroups        2(seed wall);
        nFaces          0;
        startFace       79690;
    }
    procBoundary23to15
    {
        type            processor;
        inGroups        1(processor);
        nFaces          662;
        startFace       79690;
        matchTolerance  0.0001;
        transform       unknown;
        myProcNo        23;
        neighbProcNo    15;
    }
    procBoundary23to21
    {
        type            processor;
        inGroups        1(processor);
        nFaces          1118;
        startFace       80352;
        matchTolerance  0.0001;
        transform       unknown;
        myProcNo        23;
        neighbProcNo    21;
    }
    procBoundary23to22
    {
        type            processor;
        inGroups        1(processor);
        nFaces          1016;
        startFace       81470;
        matchTolerance  0.0001;
        transform       unknown;
        myProcNo        23;
        neighbProcNo    22;
    }
)

// ************************************************************************* //
