/*--------------------------------*- C++ -*----------------------------------*\
| =========                 |                                                 |
| \\      /  F ield         | OpenFOAM: The Open Source CFD Toolbox           |
|  \\    /   O peration     | Version:  2406                                  |
|   \\  /    A nd           | Website:  www.openfoam.com                      |
|    \\/     M anipulation  |                                                 |
\*---------------------------------------------------------------------------*/
FoamFile
{
    version     2.0;
    format      binary;
    arch        "LSB;label=32;scalar=64";
    class       volScalarField;
    location    "0";
    object      cellLevel;
}
// * * * * * * * * * * * * * * * * * * * * * * * * * * * * * * * * * * * * * //

dimensions      [0 0 0 0 0 0 0];

internalField   uniform 0;

boundaryField
{
    oversetPatch
    {
        type            overset;
        value           uniform 0;
    }
    seed
    {
        type            zeroGradient;
    }
    procBoundary30to22
    {
        type            processor;
        value           uniform 0;
    }
    procBoundary30to23
    {
        type            processor;
        value           uniform 0;
    }
    procBoundary30to28
    {
        type            processor;
        value           uniform 0;
    }
    procBoundary30to29
    {
        type            processor;
        value           uniform 0;
    }
    procBoundary30to31
    {
        type            processor;
        value           uniform 0;
    }
}


// ************************************************************************* //
