/*--------------------------------*- C++ -*----------------------------------*\
| =========                 |                                                 |
| \\      /  F ield         | OpenFOAM: The Open Source CFD Toolbox           |
|  \\    /   O peration     | Version:  2406                                  |
|   \\  /    A nd           | Website:  www.openfoam.com                      |
|    \\/     M anipulation  |                                                 |
\*---------------------------------------------------------------------------*/
FoamFile
{
    version     2.0;
    format      ascii;
    arch        "LSB;label=32;scalar=64";
    class       pointScalarField;
    location    "0";
    object      motionScale;
}
// * * * * * * * * * * * * * * * * * * * * * * * * * * * * * * * * * * * * * //

dimensions      [0 0 0 0 0 0 0];

internalField   uniform 1;

boundaryField
{
    wall
    {
        type            calculated;
    }
    inlet
    {
        type            calculated;
    }
    outlet
    {
        type            calculated;
    }
    oversetPatch
    {
        type            calculated;
    }
    seed
    {
        type            calculated;
    }
    procBoundary10to2
    {
        type            processor;
    }
    procBoundary10to4
    {
        type            processor;
    }
    procBoundary10to8
    {
        type            processor;
    }
    procBoundary10to9
    {
        type            processor;
    }
    procBoundary10to12
    {
        type            processor;
    }
    procBoundary10to18
    {
        type            processor;
    }
    procBoundary10to20
    {
        type            processor;
    }
    procBoundary10to26
    {
        type            processor;
    }
    procBoundary10to27
    {
        type            processor;
    }
}


// ************************************************************************* //
