/*--------------------------------*- C++ -*----------------------------------*\
| =========                 |                                                 |
| \\      /  F ield         | OpenFOAM: The Open Source CFD Toolbox           |
|  \\    /   O peration     | Version:  2406                                  |
|   \\  /    A nd           | Website:  www.openfoam.com                      |
|    \\/     M anipulation  |                                                 |
\*---------------------------------------------------------------------------*/
FoamFile
{
    version     2.0;
    format      ascii;
    arch        "LSB;label=32;scalar=64";
    class       polyBoundaryMesh;
    location    "constant/polyMesh";
    object      boundary;
}
// * * * * * * * * * * * * * * * * * * * * * * * * * * * * * * * * * * * * * //

5
(
    wall
    {
        type            wall;
        inGroups        1(wall);
        nFaces          7200;
        startFace       1077240;
    }
    inlet
    {
        type            patch;
        nFaces          900;
        startFace       1084440;
    }
    outlet
    {
        type            patch;
        nFaces          900;
        startFace       1085340;
    }
    oversetPatch
    {
        type            overset;
        inGroups        1(overset);
        nFaces          9000;
        startFace       1086240;
    }
    seed
    {
        type            wall;
        inGroups        2(seed wall);
        nFaces          84106;
        startFace       1095240;
    }
)

// ************************************************************************* //
