/*--------------------------------*- C++ -*----------------------------------*\
| =========                 |                                                 |
| \\      /  F ield         | OpenFOAM: The Open Source CFD Toolbox           |
|  \\    /   O peration     | Version:  2406                                  |
|   \\  /    A nd           | Website:  www.openfoam.com                      |
|    \\/     M anipulation  |                                                 |
\*---------------------------------------------------------------------------*/
FoamFile
{
    version     2.0;
    format      ascii;
    arch        "LSB;label=32;scalar=64";
    class       polyBoundaryMesh;
    location    "constant/polyMesh";
    object      boundary;
}
// * * * * * * * * * * * * * * * * * * * * * * * * * * * * * * * * * * * * * //

12
(
    wall
    {
        type            patch;
        nFaces          1318;
        startFace       80080;
    }
    inlet
    {
        type            wall;
        inGroups        1(wall);
        nFaces          0;
        startFace       81398;
    }
    outlet
    {
        type            wall;
        inGroups        1(wall);
        nFaces          0;
        startFace       81398;
    }
    oversetPatch
    {
        type            overset;
        inGroups        1(overset);
        nFaces          1477;
        startFace       81398;
    }
    seed
    {
        type            wall;
        inGroups        2(seed wall);
        nFaces          0;
        startFace       82875;
    }
    procBoundary16to8
    {
        type            processor;
        inGroups        1(processor);
        nFaces          1221;
        startFace       82875;
        matchTolerance  0.0001;
        transform       unknown;
        myProcNo        16;
        neighbProcNo    8;
    }
    procBoundary16to9
    {
        type            processor;
        inGroups        1(processor);
        nFaces          69;
        startFace       84096;
        matchTolerance  0.0001;
        transform       unknown;
        myProcNo        16;
        neighbProcNo    9;
    }
    procBoundary16to17
    {
        type            processor;
        inGroups        1(processor);
        nFaces          1146;
        startFace       84165;
        matchTolerance  0.0001;
        transform       unknown;
        myProcNo        16;
        neighbProcNo    17;
    }
    procBoundary16to22
    {
        type            processor;
        inGroups        1(processor);
        nFaces          647;
        startFace       85311;
        matchTolerance  0.0001;
        transform       unknown;
        myProcNo        16;
        neighbProcNo    22;
    }
    procBoundary16to24
    {
        type            processor;
        inGroups        1(processor);
        nFaces          678;
        startFace       85958;
        matchTolerance  0.0001;
        transform       unknown;
        myProcNo        16;
        neighbProcNo    24;
    }
    procBoundary16to26
    {
        type            processor;
        inGroups        1(processor);
        nFaces          456;
        startFace       86636;
        matchTolerance  0.0001;
        transform       unknown;
        myProcNo        16;
        neighbProcNo    26;
    }
    procBoundary16to28
    {
        type            processor;
        inGroups        1(processor);
        nFaces          258;
        startFace       87092;
        matchTolerance  0.0001;
        transform       unknown;
        myProcNo        16;
        neighbProcNo    28;
    }
)

// ************************************************************************* //
