/*--------------------------------*- C++ -*----------------------------------*\
| =========                 |                                                 |
| \\      /  F ield         | OpenFOAM: The Open Source CFD Toolbox           |
|  \\    /   O peration     | Version:  2406                                  |
|   \\  /    A nd           | Website:  www.openfoam.com                      |
|    \\/     M anipulation  |                                                 |
\*---------------------------------------------------------------------------*/
FoamFile
{
    version     2.0;
    format      binary;
    arch        "LSB;label=32;scalar=64";
    class       polyBoundaryMesh;
    location    "constant/polyMesh";
    object      boundary;
}
// * * * * * * * * * * * * * * * * * * * * * * * * * * * * * * * * * * * * * //

8
(
    oversetPatch
    {
        type            overset;
        inGroups        1(overset);
        nFaces          1821;
        startFace       78385;
    }
    seed
    {
        type            wall;
        inGroups        2(seed wall);
        nFaces          2108;
        startFace       80206;
    }
    procBoundary0to1
    {
        type            processor;
        inGroups        1(processor);
        nFaces          627;
        startFace       82314;
        matchTolerance  0.0001;
        transform       unknown;
        myProcNo        0;
        neighbProcNo    1;
    }
    procBoundary0to2
    {
        type            processor;
        inGroups        1(processor);
        nFaces          1567;
        startFace       82941;
        matchTolerance  0.0001;
        transform       unknown;
        myProcNo        0;
        neighbProcNo    2;
    }
    procBoundary0to8
    {
        type            processor;
        inGroups        1(processor);
        nFaces          2303;
        startFace       84508;
        matchTolerance  0.0001;
        transform       unknown;
        myProcNo        0;
        neighbProcNo    8;
    }
    procBoundary0to9
    {
        type            processor;
        inGroups        1(processor);
        nFaces          36;
        startFace       86811;
        matchTolerance  0.0001;
        transform       unknown;
        myProcNo        0;
        neighbProcNo    9;
    }
    procBoundary0to10
    {
        type            processor;
        inGroups        1(processor);
        nFaces          738;
        startFace       86847;
        matchTolerance  0.0001;
        transform       unknown;
        myProcNo        0;
        neighbProcNo    10;
    }
    procBoundary0to18
    {
        type            processor;
        inGroups        1(processor);
        nFaces          2;
        startFace       87585;
        matchTolerance  0.0001;
        transform       unknown;
        myProcNo        0;
        neighbProcNo    18;
    }
)

// ************************************************************************* //
