/*--------------------------------*- C++ -*----------------------------------*\
| =========                 |                                                 |
| \\      /  F ield         | OpenFOAM: The Open Source CFD Toolbox           |
|  \\    /   O peration     | Version:  2406                                  |
|   \\  /    A nd           | Website:  www.openfoam.com                      |
|    \\/     M anipulation  |                                                 |
\*---------------------------------------------------------------------------*/
FoamFile
{
    version     2.0;
    format      binary;
    arch        "LSB;label=32;scalar=64";
    class       polyBoundaryMesh;
    location    "constant/polyMesh";
    object      boundary;
}
// * * * * * * * * * * * * * * * * * * * * * * * * * * * * * * * * * * * * * //

9
(
    oversetPatch
    {
        type            overset;
        inGroups        1(overset);
        nFaces          1821;
        startFace       57962;
    }
    seed
    {
        type            wall;
        inGroups        2(seed wall);
        nFaces          447;
        startFace       59783;
    }
    procBoundary0to1
    {
        type            processor;
        inGroups        1(processor);
        nFaces          624;
        startFace       60230;
        matchTolerance  0.0001;
        transform       unknown;
        myProcNo        0;
        neighbProcNo    1;
    }
    procBoundary0to2
    {
        type            processor;
        inGroups        1(processor);
        nFaces          1239;
        startFace       60854;
        matchTolerance  0.0001;
        transform       unknown;
        myProcNo        0;
        neighbProcNo    2;
    }
    procBoundary0to8
    {
        type            processor;
        inGroups        1(processor);
        nFaces          1324;
        startFace       62093;
        matchTolerance  0.0001;
        transform       unknown;
        myProcNo        0;
        neighbProcNo    8;
    }
    procBoundary0to9
    {
        type            processor;
        inGroups        1(processor);
        nFaces          28;
        startFace       63417;
        matchTolerance  0.0001;
        transform       unknown;
        myProcNo        0;
        neighbProcNo    9;
    }
    procBoundary0to10
    {
        type            processor;
        inGroups        1(processor);
        nFaces          555;
        startFace       63445;
        matchTolerance  0.0001;
        transform       unknown;
        myProcNo        0;
        neighbProcNo    10;
    }
    procBoundary0to16
    {
        type            processor;
        inGroups        1(processor);
        nFaces          570;
        startFace       64000;
        matchTolerance  0.0001;
        transform       unknown;
        myProcNo        0;
        neighbProcNo    16;
    }
    procBoundary0to17
    {
        type            processor;
        inGroups        1(processor);
        nFaces          6;
        startFace       64570;
        matchTolerance  0.0001;
        transform       unknown;
        myProcNo        0;
        neighbProcNo    17;
    }
)

// ************************************************************************* //
