/*--------------------------------*- C++ -*----------------------------------*\
| =========                 |                                                 |
| \\      /  F ield         | OpenFOAM: The Open Source CFD Toolbox           |
|  \\    /   O peration     | Version:  2406                                  |
|   \\  /    A nd           | Website:  www.openfoam.com                      |
|    \\/     M anipulation  |                                                 |
\*---------------------------------------------------------------------------*/
FoamFile
{
    version     2.0;
    format      ascii;
    arch        "LSB;label=32;scalar=64";
    class       polyBoundaryMesh;
    location    "constant/polyMesh";
    object      boundary;
}
// * * * * * * * * * * * * * * * * * * * * * * * * * * * * * * * * * * * * * //

16
(
    wall
    {
        type            patch;
        nFaces          0;
        startFace       85120;
    }
    inlet
    {
        type            wall;
        inGroups        1(wall);
        nFaces          0;
        startFace       85120;
    }
    outlet
    {
        type            wall;
        inGroups        1(wall);
        nFaces          0;
        startFace       85120;
    }
    oversetPatch
    {
        type            overset;
        inGroups        1(overset);
        nFaces          106;
        startFace       85120;
    }
    seed
    {
        type            wall;
        inGroups        2(seed wall);
        nFaces          6169;
        startFace       85226;
    }
    procBoundary5to1
    {
        type            processor;
        inGroups        1(processor);
        nFaces          4;
        startFace       91395;
        matchTolerance  0.0001;
        transform       unknown;
        myProcNo        5;
        neighbProcNo    1;
    }
    procBoundary5to3
    {
        type            processor;
        inGroups        1(processor);
        nFaces          1208;
        startFace       91399;
        matchTolerance  0.0001;
        transform       unknown;
        myProcNo        5;
        neighbProcNo    3;
    }
    procBoundary5to4
    {
        type            processor;
        inGroups        1(processor);
        nFaces          120;
        startFace       92607;
        matchTolerance  0.0001;
        transform       unknown;
        myProcNo        5;
        neighbProcNo    4;
    }
    procBoundary5to6
    {
        type            processor;
        inGroups        1(processor);
        nFaces          32;
        startFace       92727;
        matchTolerance  0.0001;
        transform       unknown;
        myProcNo        5;
        neighbProcNo    6;
    }
    procBoundary5to7
    {
        type            processor;
        inGroups        1(processor);
        nFaces          592;
        startFace       92759;
        matchTolerance  0.0001;
        transform       unknown;
        myProcNo        5;
        neighbProcNo    7;
    }
    procBoundary5to11
    {
        type            processor;
        inGroups        1(processor);
        nFaces          198;
        startFace       93351;
        matchTolerance  0.0001;
        transform       unknown;
        myProcNo        5;
        neighbProcNo    11;
    }
    procBoundary5to13
    {
        type            processor;
        inGroups        1(processor);
        nFaces          2777;
        startFace       93549;
        matchTolerance  0.0001;
        transform       unknown;
        myProcNo        5;
        neighbProcNo    13;
    }
    procBoundary5to14
    {
        type            processor;
        inGroups        1(processor);
        nFaces          53;
        startFace       96326;
        matchTolerance  0.0001;
        transform       unknown;
        myProcNo        5;
        neighbProcNo    14;
    }
    procBoundary5to15
    {
        type            processor;
        inGroups        1(processor);
        nFaces          264;
        startFace       96379;
        matchTolerance  0.0001;
        transform       unknown;
        myProcNo        5;
        neighbProcNo    15;
    }
    procBoundary5to19
    {
        type            processor;
        inGroups        1(processor);
        nFaces          1;
        startFace       96643;
        matchTolerance  0.0001;
        transform       unknown;
        myProcNo        5;
        neighbProcNo    19;
    }
    procBoundary5to29
    {
        type            processor;
        inGroups        1(processor);
        nFaces          42;
        startFace       96644;
        matchTolerance  0.0001;
        transform       unknown;
        myProcNo        5;
        neighbProcNo    29;
    }
)

// ************************************************************************* //
