/*--------------------------------*- C++ -*----------------------------------*\
| =========                 |                                                 |
| \\      /  F ield         | OpenFOAM: The Open Source CFD Toolbox           |
|  \\    /   O peration     | Version:  2406                                  |
|   \\  /    A nd           | Website:  www.openfoam.com                      |
|    \\/     M anipulation  |                                                 |
\*---------------------------------------------------------------------------*/
FoamFile
{
    version     2.0;
    format      ascii;
    arch        "LSB;label=32;scalar=64";
    class       polyBoundaryMesh;
    location    "constant/polyMesh";
    object      boundary;
}
// * * * * * * * * * * * * * * * * * * * * * * * * * * * * * * * * * * * * * //

11
(
    wall
    {
        type            wall;
        inGroups        1(wall);
        nFaces          450;
        startFace       86897;
    }
    inlet
    {
        type            patch;
        nFaces          225;
        startFace       87347;
    }
    outlet
    {
        type            patch;
        nFaces          0;
        startFace       87572;
    }
    oversetPatch
    {
        type            overset;
        inGroups        1(overset);
        nFaces          675;
        startFace       87572;
    }
    seed
    {
        type            wall;
        inGroups        2(seed wall);
        nFaces          8139;
        startFace       88247;
    }
    procBoundary5to2
    {
        type            processor;
        inGroups        1(processor);
        nFaces          883;
        startFace       96386;
        matchTolerance  0.0001;
        transform       unknown;
        myProcNo        5;
        neighbProcNo    2;
    }
    procBoundary5to3
    {
        type            processor;
        inGroups        1(processor);
        nFaces          445;
        startFace       97269;
        matchTolerance  0.0001;
        transform       unknown;
        myProcNo        5;
        neighbProcNo    3;
    }
    procBoundary5to4
    {
        type            processor;
        inGroups        1(processor);
        nFaces          507;
        startFace       97714;
        matchTolerance  0.0001;
        transform       unknown;
        myProcNo        5;
        neighbProcNo    4;
    }
    procBoundary5to8
    {
        type            processor;
        inGroups        1(processor);
        nFaces          230;
        startFace       98221;
        matchTolerance  0.0001;
        transform       unknown;
        myProcNo        5;
        neighbProcNo    8;
    }
    procBoundary5to10
    {
        type            processor;
        inGroups        1(processor);
        nFaces          334;
        startFace       98451;
        matchTolerance  0.0001;
        transform       unknown;
        myProcNo        5;
        neighbProcNo    10;
    }
    procBoundary5to11
    {
        type            processor;
        inGroups        1(processor);
        nFaces          2089;
        startFace       98785;
        matchTolerance  0.0001;
        transform       unknown;
        myProcNo        5;
        neighbProcNo    11;
    }
)

// ************************************************************************* //
