/*--------------------------------*- C++ -*----------------------------------*\
| =========                 |                                                 |
| \\      /  F ield         | OpenFOAM: The Open Source CFD Toolbox           |
|  \\    /   O peration     | Version:  2406                                  |
|   \\  /    A nd           | Website:  www.openfoam.com                      |
|    \\/     M anipulation  |                                                 |
\*---------------------------------------------------------------------------*/
FoamFile
{
    version     2.0;
    format      ascii;
    arch        "LSB;label=32;scalar=64";
    class       polyBoundaryMesh;
    location    "constant/polyMesh";
    object      boundary;
}
// * * * * * * * * * * * * * * * * * * * * * * * * * * * * * * * * * * * * * //

16
(
    wall
    {
        type            patch;
        nFaces          0;
        startFace       80837;
    }
    inlet
    {
        type            wall;
        inGroups        1(wall);
        nFaces          0;
        startFace       80837;
    }
    outlet
    {
        type            wall;
        inGroups        1(wall);
        nFaces          0;
        startFace       80837;
    }
    oversetPatch
    {
        type            overset;
        inGroups        1(overset);
        nFaces          0;
        startFace       80837;
    }
    seed
    {
        type            wall;
        inGroups        2(seed wall);
        nFaces          12032;
        startFace       80837;
    }
    procBoundary13to4
    {
        type            processor;
        inGroups        1(processor);
        nFaces          173;
        startFace       92869;
        matchTolerance  0.0001;
        transform       unknown;
        myProcNo        13;
        neighbProcNo    4;
    }
    procBoundary13to5
    {
        type            processor;
        inGroups        1(processor);
        nFaces          2777;
        startFace       93042;
        matchTolerance  0.0001;
        transform       unknown;
        myProcNo        13;
        neighbProcNo    5;
    }
    procBoundary13to7
    {
        type            processor;
        inGroups        1(processor);
        nFaces          2;
        startFace       95819;
        matchTolerance  0.0001;
        transform       unknown;
        myProcNo        13;
        neighbProcNo    7;
    }
    procBoundary13to11
    {
        type            processor;
        inGroups        1(processor);
        nFaces          26;
        startFace       95821;
        matchTolerance  0.0001;
        transform       unknown;
        myProcNo        13;
        neighbProcNo    11;
    }
    procBoundary13to12
    {
        type            processor;
        inGroups        1(processor);
        nFaces          48;
        startFace       95847;
        matchTolerance  0.0001;
        transform       unknown;
        myProcNo        13;
        neighbProcNo    12;
    }
    procBoundary13to14
    {
        type            processor;
        inGroups        1(processor);
        nFaces          20;
        startFace       95895;
        matchTolerance  0.0001;
        transform       unknown;
        myProcNo        13;
        neighbProcNo    14;
    }
    procBoundary13to15
    {
        type            processor;
        inGroups        1(processor);
        nFaces          29;
        startFace       95915;
        matchTolerance  0.0001;
        transform       unknown;
        myProcNo        13;
        neighbProcNo    15;
    }
    procBoundary13to19
    {
        type            processor;
        inGroups        1(processor);
        nFaces          317;
        startFace       95944;
        matchTolerance  0.0001;
        transform       unknown;
        myProcNo        13;
        neighbProcNo    19;
    }
    procBoundary13to21
    {
        type            processor;
        inGroups        1(processor);
        nFaces          3051;
        startFace       96261;
        matchTolerance  0.0001;
        transform       unknown;
        myProcNo        13;
        neighbProcNo    21;
    }
    procBoundary13to27
    {
        type            processor;
        inGroups        1(processor);
        nFaces          41;
        startFace       99312;
        matchTolerance  0.0001;
        transform       unknown;
        myProcNo        13;
        neighbProcNo    27;
    }
    procBoundary13to29
    {
        type            processor;
        inGroups        1(processor);
        nFaces          15;
        startFace       99353;
        matchTolerance  0.0001;
        transform       unknown;
        myProcNo        13;
        neighbProcNo    29;
    }
)

// ************************************************************************* //
