/*--------------------------------*- C++ -*----------------------------------*\
| =========                 |                                                 |
| \\      /  F ield         | OpenFOAM: The Open Source CFD Toolbox           |
|  \\    /   O peration     | Version:  2406                                  |
|   \\  /    A nd           | Website:  www.openfoam.com                      |
|    \\/     M anipulation  |                                                 |
\*---------------------------------------------------------------------------*/
FoamFile
{
    version     2.0;
    format      ascii;
    arch        "LSB;label=32;scalar=64";
    class       polyBoundaryMesh;
    location    "constant/polyMesh";
    object      boundary;
}
// * * * * * * * * * * * * * * * * * * * * * * * * * * * * * * * * * * * * * //

15
(
    wall
    {
        type            patch;
        nFaces          0;
        startFace       81372;
    }
    inlet
    {
        type            wall;
        inGroups        1(wall);
        nFaces          0;
        startFace       81372;
    }
    outlet
    {
        type            wall;
        inGroups        1(wall);
        nFaces          0;
        startFace       81372;
    }
    oversetPatch
    {
        type            overset;
        inGroups        1(overset);
        nFaces          0;
        startFace       81372;
    }
    seed
    {
        type            wall;
        inGroups        2(seed wall);
        nFaces          10142;
        startFace       81372;
    }
    procBoundary19to2
    {
        type            processor;
        inGroups        1(processor);
        nFaces          21;
        startFace       91514;
        matchTolerance  0.0001;
        transform       unknown;
        myProcNo        19;
        neighbProcNo    2;
    }
    procBoundary19to3
    {
        type            processor;
        inGroups        1(processor);
        nFaces          27;
        startFace       91535;
        matchTolerance  0.0001;
        transform       unknown;
        myProcNo        19;
        neighbProcNo    3;
    }
    procBoundary19to4
    {
        type            processor;
        inGroups        1(processor);
        nFaces          411;
        startFace       91562;
        matchTolerance  0.0001;
        transform       unknown;
        myProcNo        19;
        neighbProcNo    4;
    }
    procBoundary19to5
    {
        type            processor;
        inGroups        1(processor);
        nFaces          1;
        startFace       91973;
        matchTolerance  0.0001;
        transform       unknown;
        myProcNo        19;
        neighbProcNo    5;
    }
    procBoundary19to9
    {
        type            processor;
        inGroups        1(processor);
        nFaces          24;
        startFace       91974;
        matchTolerance  0.0001;
        transform       unknown;
        myProcNo        19;
        neighbProcNo    9;
    }
    procBoundary19to11
    {
        type            processor;
        inGroups        1(processor);
        nFaces          4344;
        startFace       91998;
        matchTolerance  0.0001;
        transform       unknown;
        myProcNo        19;
        neighbProcNo    11;
    }
    procBoundary19to12
    {
        type            processor;
        inGroups        1(processor);
        nFaces          10;
        startFace       96342;
        matchTolerance  0.0001;
        transform       unknown;
        myProcNo        19;
        neighbProcNo    12;
    }
    procBoundary19to13
    {
        type            processor;
        inGroups        1(processor);
        nFaces          317;
        startFace       96352;
        matchTolerance  0.0001;
        transform       unknown;
        myProcNo        19;
        neighbProcNo    13;
    }
    procBoundary19to21
    {
        type            processor;
        inGroups        1(processor);
        nFaces          2;
        startFace       96669;
        matchTolerance  0.0001;
        transform       unknown;
        myProcNo        19;
        neighbProcNo    21;
    }
    procBoundary19to27
    {
        type            processor;
        inGroups        1(processor);
        nFaces          3219;
        startFace       96671;
        matchTolerance  0.0001;
        transform       unknown;
        myProcNo        19;
        neighbProcNo    27;
    }
)

// ************************************************************************* //
