/*--------------------------------*- C++ -*----------------------------------*\
| =========                 |                                                 |
| \\      /  F ield         | OpenFOAM: The Open Source CFD Toolbox           |
|  \\    /   O peration     | Version:  2406                                  |
|   \\  /    A nd           | Website:  www.openfoam.com                      |
|    \\/     M anipulation  |                                                 |
\*---------------------------------------------------------------------------*/
FoamFile
{
    version     2.0;
    format      ascii;
    arch        "LSB;label=32;scalar=64";
    class       polyBoundaryMesh;
    location    "constant/polyMesh";
    object      boundary;
}
// * * * * * * * * * * * * * * * * * * * * * * * * * * * * * * * * * * * * * //

10
(
    wall
    {
        type            patch;
        nFaces          1200;
        startFace       80005;
    }
    inlet
    {
        type            wall;
        inGroups        1(wall);
        nFaces          625;
        startFace       81205;
    }
    outlet
    {
        type            wall;
        inGroups        1(wall);
        nFaces          0;
        startFace       81830;
    }
    oversetPatch
    {
        type            overset;
        inGroups        1(overset);
        nFaces          1655;
        startFace       81830;
    }
    seed
    {
        type            wall;
        inGroups        2(seed wall);
        nFaces          0;
        startFace       83485;
    }
    procBoundary7to1
    {
        type            processor;
        inGroups        1(processor);
        nFaces          592;
        startFace       83485;
        matchTolerance  0.0001;
        transform       unknown;
        myProcNo        7;
        neighbProcNo    1;
    }
    procBoundary7to5
    {
        type            processor;
        inGroups        1(processor);
        nFaces          592;
        startFace       84077;
        matchTolerance  0.0001;
        transform       unknown;
        myProcNo        7;
        neighbProcNo    5;
    }
    procBoundary7to6
    {
        type            processor;
        inGroups        1(processor);
        nFaces          1111;
        startFace       84669;
        matchTolerance  0.0001;
        transform       unknown;
        myProcNo        7;
        neighbProcNo    6;
    }
    procBoundary7to13
    {
        type            processor;
        inGroups        1(processor);
        nFaces          2;
        startFace       85780;
        matchTolerance  0.0001;
        transform       unknown;
        myProcNo        7;
        neighbProcNo    13;
    }
    procBoundary7to15
    {
        type            processor;
        inGroups        1(processor);
        nFaces          1274;
        startFace       85782;
        matchTolerance  0.0001;
        transform       unknown;
        myProcNo        7;
        neighbProcNo    15;
    }
)

// ************************************************************************* //
