/*--------------------------------*- C++ -*----------------------------------*\
| =========                 |                                                 |
| \\      /  F ield         | OpenFOAM: The Open Source CFD Toolbox           |
|  \\    /   O peration     | Version:  2406                                  |
|   \\  /    A nd           | Website:  www.openfoam.com                      |
|    \\/     M anipulation  |                                                 |
\*---------------------------------------------------------------------------*/
FoamFile
{
    version     2.0;
    format      ascii;
    arch        "LSB;label=32;scalar=64";
    class       polyBoundaryMesh;
    location    "constant/polyMesh";
    object      boundary;
}
// * * * * * * * * * * * * * * * * * * * * * * * * * * * * * * * * * * * * * //

14
(
    wall
    {
        type            wall;
        inGroups        1(wall);
        nFaces          0;
        startFace       87349;
    }
    inlet
    {
        type            patch;
        nFaces          0;
        startFace       87349;
    }
    outlet
    {
        type            patch;
        nFaces          0;
        startFace       87349;
    }
    oversetPatch
    {
        type            overset;
        inGroups        1(overset);
        nFaces          0;
        startFace       87349;
    }
    seed
    {
        type            wall;
        inGroups        2(seed wall);
        nFaces          10175;
        startFace       87349;
    }
    procBoundary7to0
    {
        type            processor;
        inGroups        1(processor);
        nFaces          448;
        startFace       97524;
        matchTolerance  0.0001;
        transform       unknown;
        myProcNo        7;
        neighbProcNo    0;
    }
    procBoundary7to1
    {
        type            processor;
        inGroups        1(processor);
        nFaces          5478;
        startFace       97972;
        matchTolerance  0.0001;
        transform       unknown;
        myProcNo        7;
        neighbProcNo    1;
    }
    procBoundary7to2
    {
        type            processor;
        inGroups        1(processor);
        nFaces          36;
        startFace       103450;
        matchTolerance  0.0001;
        transform       unknown;
        myProcNo        7;
        neighbProcNo    2;
    }
    procBoundary7to3
    {
        type            processor;
        inGroups        1(processor);
        nFaces          113;
        startFace       103486;
        matchTolerance  0.0001;
        transform       unknown;
        myProcNo        7;
        neighbProcNo    3;
    }
    procBoundary7to4
    {
        type            processor;
        inGroups        1(processor);
        nFaces          182;
        startFace       103599;
        matchTolerance  0.0001;
        transform       unknown;
        myProcNo        7;
        neighbProcNo    4;
    }
    procBoundary7to6
    {
        type            processor;
        inGroups        1(processor);
        nFaces          138;
        startFace       103781;
        matchTolerance  0.0001;
        transform       unknown;
        myProcNo        7;
        neighbProcNo    6;
    }
    procBoundary7to8
    {
        type            processor;
        inGroups        1(processor);
        nFaces          155;
        startFace       103919;
        matchTolerance  0.0001;
        transform       unknown;
        myProcNo        7;
        neighbProcNo    8;
    }
    procBoundary7to9
    {
        type            processor;
        inGroups        1(processor);
        nFaces          19;
        startFace       104074;
        matchTolerance  0.0001;
        transform       unknown;
        myProcNo        7;
        neighbProcNo    9;
    }
    procBoundary7to10
    {
        type            processor;
        inGroups        1(processor);
        nFaces          724;
        startFace       104093;
        matchTolerance  0.0001;
        transform       unknown;
        myProcNo        7;
        neighbProcNo    10;
    }
)

// ************************************************************************* //
