/*--------------------------------*- C++ -*----------------------------------*\
| =========                 |                                                 |
| \\      /  F ield         | OpenFOAM: The Open Source CFD Toolbox           |
|  \\    /   O peration     | Version:  2406                                  |
|   \\  /    A nd           | Website:  www.openfoam.com                      |
|    \\/     M anipulation  |                                                 |
\*---------------------------------------------------------------------------*/
FoamFile
{
    version     2.0;
    format      ascii;
    arch        "LSB;label=32;scalar=64";
    class       polyBoundaryMesh;
    location    "constant/polyMesh";
    object      boundary;
}
// * * * * * * * * * * * * * * * * * * * * * * * * * * * * * * * * * * * * * //

11
(
    wall
    {
        type            patch;
        nFaces          1200;
        startFace       80018;
    }
    inlet
    {
        type            wall;
        inGroups        1(wall);
        nFaces          625;
        startFace       81218;
    }
    outlet
    {
        type            wall;
        inGroups        1(wall);
        nFaces          0;
        startFace       81843;
    }
    oversetPatch
    {
        type            overset;
        inGroups        1(overset);
        nFaces          1629;
        startFace       81843;
    }
    seed
    {
        type            wall;
        inGroups        2(seed wall);
        nFaces          0;
        startFace       83472;
    }
    procBoundary1to0
    {
        type            processor;
        inGroups        1(processor);
        nFaces          1111;
        startFace       83472;
        matchTolerance  0.0001;
        transform       unknown;
        myProcNo        1;
        neighbProcNo    0;
    }
    procBoundary1to3
    {
        type            processor;
        inGroups        1(processor);
        nFaces          618;
        startFace       84583;
        matchTolerance  0.0001;
        transform       unknown;
        myProcNo        1;
        neighbProcNo    3;
    }
    procBoundary1to5
    {
        type            processor;
        inGroups        1(processor);
        nFaces          4;
        startFace       85201;
        matchTolerance  0.0001;
        transform       unknown;
        myProcNo        1;
        neighbProcNo    5;
    }
    procBoundary1to7
    {
        type            processor;
        inGroups        1(processor);
        nFaces          592;
        startFace       85205;
        matchTolerance  0.0001;
        transform       unknown;
        myProcNo        1;
        neighbProcNo    7;
    }
    procBoundary1to9
    {
        type            processor;
        inGroups        1(processor);
        nFaces          1274;
        startFace       85797;
        matchTolerance  0.0001;
        transform       unknown;
        myProcNo        1;
        neighbProcNo    9;
    }
    procBoundary1to27
    {
        type            processor;
        inGroups        1(processor);
        nFaces          2;
        startFace       87071;
        matchTolerance  0.0001;
        transform       unknown;
        myProcNo        1;
        neighbProcNo    27;
    }
)

// ************************************************************************* //
