/*--------------------------------*- C++ -*----------------------------------*\
| =========                 |                                                 |
| \\      /  F ield         | OpenFOAM: The Open Source CFD Toolbox           |
|  \\    /   O peration     | Version:  2406                                  |
|   \\  /    A nd           | Website:  www.openfoam.com                      |
|    \\/     M anipulation  |                                                 |
\*---------------------------------------------------------------------------*/
FoamFile
{
    version     2.0;
    format      ascii;
    arch        "LSB;label=32;scalar=64";
    class       polyBoundaryMesh;
    location    "constant/polyMesh";
    object      boundary;
}
// * * * * * * * * * * * * * * * * * * * * * * * * * * * * * * * * * * * * * //

11
(
    wall
    {
        type            wall;
        inGroups        1(wall);
        nFaces          0;
        startFace       87017;
    }
    inlet
    {
        type            patch;
        nFaces          0;
        startFace       87017;
    }
    outlet
    {
        type            patch;
        nFaces          0;
        startFace       87017;
    }
    oversetPatch
    {
        type            overset;
        inGroups        1(overset);
        nFaces          0;
        startFace       87017;
    }
    seed
    {
        type            wall;
        inGroups        2(seed wall);
        nFaces          10666;
        startFace       87017;
    }
    procBoundary1to0
    {
        type            processor;
        inGroups        1(processor);
        nFaces          181;
        startFace       97683;
        matchTolerance  0.0001;
        transform       unknown;
        myProcNo        1;
        neighbProcNo    0;
    }
    procBoundary1to2
    {
        type            processor;
        inGroups        1(processor);
        nFaces          336;
        startFace       97864;
        matchTolerance  0.0001;
        transform       unknown;
        myProcNo        1;
        neighbProcNo    2;
    }
    procBoundary1to3
    {
        type            processor;
        inGroups        1(processor);
        nFaces          34;
        startFace       98200;
        matchTolerance  0.0001;
        transform       unknown;
        myProcNo        1;
        neighbProcNo    3;
    }
    procBoundary1to4
    {
        type            processor;
        inGroups        1(processor);
        nFaces          826;
        startFace       98234;
        matchTolerance  0.0001;
        transform       unknown;
        myProcNo        1;
        neighbProcNo    4;
    }
    procBoundary1to7
    {
        type            processor;
        inGroups        1(processor);
        nFaces          5478;
        startFace       99060;
        matchTolerance  0.0001;
        transform       unknown;
        myProcNo        1;
        neighbProcNo    7;
    }
    procBoundary1to10
    {
        type            processor;
        inGroups        1(processor);
        nFaces          4;
        startFace       104538;
        matchTolerance  0.0001;
        transform       unknown;
        myProcNo        1;
        neighbProcNo    10;
    }
)

// ************************************************************************* //
