/*--------------------------------*- C++ -*----------------------------------*\
| =========                 |                                                 |
| \\      /  F ield         | OpenFOAM: The Open Source CFD Toolbox           |
|  \\    /   O peration     | Version:  2406                                  |
|   \\  /    A nd           | Website:  www.openfoam.com                      |
|    \\/     M anipulation  |                                                 |
\*---------------------------------------------------------------------------*/
FoamFile
{
    version     2.0;
    format      binary;
    arch        "LSB;label=32;scalar=64";
    class       polyBoundaryMesh;
    location    "constant/polyMesh";
    object      boundary;
}
// * * * * * * * * * * * * * * * * * * * * * * * * * * * * * * * * * * * * * //

7
(
    oversetPatch
    {
        type            overset;
        inGroups        1(overset);
        nFaces          2765;
        startFace       76930;
    }
    seed
    {
        type            wall;
        inGroups        2(seed wall);
        nFaces          0;
        startFace       79695;
    }
    procBoundary22to14
    {
        type            processor;
        inGroups        1(processor);
        nFaces          617;
        startFace       79695;
        matchTolerance  0.0001;
        transform       unknown;
        myProcNo        22;
        neighbProcNo    14;
    }
    procBoundary22to15
    {
        type            processor;
        inGroups        1(processor);
        nFaces          60;
        startFace       80312;
        matchTolerance  0.0001;
        transform       unknown;
        myProcNo        22;
        neighbProcNo    15;
    }
    procBoundary22to20
    {
        type            processor;
        inGroups        1(processor);
        nFaces          1118;
        startFace       80372;
        matchTolerance  0.0001;
        transform       unknown;
        myProcNo        22;
        neighbProcNo    20;
    }
    procBoundary22to21
    {
        type            processor;
        inGroups        1(processor);
        nFaces          26;
        startFace       81490;
        matchTolerance  0.0001;
        transform       unknown;
        myProcNo        22;
        neighbProcNo    21;
    }
    procBoundary22to23
    {
        type            processor;
        inGroups        1(processor);
        nFaces          1016;
        startFace       81516;
        matchTolerance  0.0001;
        transform       unknown;
        myProcNo        22;
        neighbProcNo    23;
    }
)

// ************************************************************************* //
