/*--------------------------------*- C++ -*----------------------------------*\
| =========                 |                                                 |
| \\      /  F ield         | OpenFOAM: The Open Source CFD Toolbox           |
|  \\    /   O peration     | Version:  2406                                  |
|   \\  /    A nd           | Website:  www.openfoam.com                      |
|    \\/     M anipulation  |                                                 |
\*---------------------------------------------------------------------------*/
FoamFile
{
    version     2.0;
    format      binary;
    arch        "LSB;label=32;scalar=64";
    class       polyBoundaryMesh;
    location    "constant/polyMesh";
    object      boundary;
}
// * * * * * * * * * * * * * * * * * * * * * * * * * * * * * * * * * * * * * //

9
(
    oversetPatch
    {
        type            overset;
        inGroups        1(overset);
        nFaces          975;
        startFace       58735;
    }
    seed
    {
        type            wall;
        inGroups        2(seed wall);
        nFaces          1158;
        startFace       59710;
    }
    procBoundary22to6
    {
        type            processor;
        inGroups        1(processor);
        nFaces          600;
        startFace       60868;
        matchTolerance  0.0001;
        transform       unknown;
        myProcNo        22;
        neighbProcNo    6;
    }
    procBoundary22to14
    {
        type            processor;
        inGroups        1(processor);
        nFaces          1521;
        startFace       61468;
        matchTolerance  0.0001;
        transform       unknown;
        myProcNo        22;
        neighbProcNo    14;
    }
    procBoundary22to20
    {
        type            processor;
        inGroups        1(processor);
        nFaces          1040;
        startFace       62989;
        matchTolerance  0.0001;
        transform       unknown;
        myProcNo        22;
        neighbProcNo    20;
    }
    procBoundary22to23
    {
        type            processor;
        inGroups        1(processor);
        nFaces          491;
        startFace       64029;
        matchTolerance  0.0001;
        transform       unknown;
        myProcNo        22;
        neighbProcNo    23;
    }
    procBoundary22to28
    {
        type            processor;
        inGroups        1(processor);
        nFaces          777;
        startFace       64520;
        matchTolerance  0.0001;
        transform       unknown;
        myProcNo        22;
        neighbProcNo    28;
    }
    procBoundary22to29
    {
        type            processor;
        inGroups        1(processor);
        nFaces          19;
        startFace       65297;
        matchTolerance  0.0001;
        transform       unknown;
        myProcNo        22;
        neighbProcNo    29;
    }
    procBoundary22to30
    {
        type            processor;
        inGroups        1(processor);
        nFaces          626;
        startFace       65316;
        matchTolerance  0.0001;
        transform       unknown;
        myProcNo        22;
        neighbProcNo    30;
    }
)

// ************************************************************************* //
