/*--------------------------------*- C++ -*----------------------------------*\
| =========                 |                                                 |
| \\      /  F ield         | OpenFOAM: The Open Source CFD Toolbox           |
|  \\    /   O peration     | Version:  2406                                  |
|   \\  /    A nd           | Website:  www.openfoam.com                      |
|    \\/     M anipulation  |                                                 |
\*---------------------------------------------------------------------------*/
FoamFile
{
    version     2.0;
    format      binary;
    arch        "LSB;label=32;scalar=64";
    class       polyBoundaryMesh;
    location    "constant/polyMesh";
    object      boundary;
}
// * * * * * * * * * * * * * * * * * * * * * * * * * * * * * * * * * * * * * //

13
(
    oversetPatch
    {
        type            overset;
        inGroups        1(overset);
        nFaces          0;
        startFace       57545;
    }
    seed
    {
        type            wall;
        inGroups        2(seed wall);
        nFaces          8887;
        startFace       57545;
    }
    procBoundary21to5
    {
        type            processor;
        inGroups        1(processor);
        nFaces          12;
        startFace       66432;
        matchTolerance  0.0001;
        transform       unknown;
        myProcNo        21;
        neighbProcNo    5;
    }
    procBoundary21to6
    {
        type            processor;
        inGroups        1(processor);
        nFaces          13;
        startFace       66444;
        matchTolerance  0.0001;
        transform       unknown;
        myProcNo        21;
        neighbProcNo    6;
    }
    procBoundary21to12
    {
        type            processor;
        inGroups        1(processor);
        nFaces          16;
        startFace       66457;
        matchTolerance  0.0001;
        transform       unknown;
        myProcNo        21;
        neighbProcNo    12;
    }
    procBoundary21to13
    {
        type            processor;
        inGroups        1(processor);
        nFaces          1808;
        startFace       66473;
        matchTolerance  0.0001;
        transform       unknown;
        myProcNo        21;
        neighbProcNo    13;
    }
    procBoundary21to14
    {
        type            processor;
        inGroups        1(processor);
        nFaces          92;
        startFace       68281;
        matchTolerance  0.0001;
        transform       unknown;
        myProcNo        21;
        neighbProcNo    14;
    }
    procBoundary21to15
    {
        type            processor;
        inGroups        1(processor);
        nFaces          237;
        startFace       68373;
        matchTolerance  0.0001;
        transform       unknown;
        myProcNo        21;
        neighbProcNo    15;
    }
    procBoundary21to19
    {
        type            processor;
        inGroups        1(processor);
        nFaces          15;
        startFace       68610;
        matchTolerance  0.0001;
        transform       unknown;
        myProcNo        21;
        neighbProcNo    19;
    }
    procBoundary21to20
    {
        type            processor;
        inGroups        1(processor);
        nFaces          6;
        startFace       68625;
        matchTolerance  0.0001;
        transform       unknown;
        myProcNo        21;
        neighbProcNo    20;
    }
    procBoundary21to23
    {
        type            processor;
        inGroups        1(processor);
        nFaces          238;
        startFace       68631;
        matchTolerance  0.0001;
        transform       unknown;
        myProcNo        21;
        neighbProcNo    23;
    }
    procBoundary21to27
    {
        type            processor;
        inGroups        1(processor);
        nFaces          633;
        startFace       68869;
        matchTolerance  0.0001;
        transform       unknown;
        myProcNo        21;
        neighbProcNo    27;
    }
    procBoundary21to29
    {
        type            processor;
        inGroups        1(processor);
        nFaces          3422;
        startFace       69502;
        matchTolerance  0.0001;
        transform       unknown;
        myProcNo        21;
        neighbProcNo    29;
    }
)

// ************************************************************************* //
