/*--------------------------------*- C++ -*----------------------------------*\
| =========                 |                                                 |
| \\      /  F ield         | OpenFOAM: The Open Source CFD Toolbox           |
|  \\    /   O peration     | Version:  2406                                  |
|   \\  /    A nd           | Website:  www.openfoam.com                      |
|    \\/     M anipulation  |                                                 |
\*---------------------------------------------------------------------------*/
FoamFile
{
    version     2.0;
    format      binary;
    arch        "LSB;label=32;scalar=64";
    class       polyBoundaryMesh;
    location    "constant/polyMesh";
    object      boundary;
}
// * * * * * * * * * * * * * * * * * * * * * * * * * * * * * * * * * * * * * //

12
(
    oversetPatch
    {
        type            overset;
        inGroups        1(overset);
        nFaces          53;
        startFace       59570;
    }
    seed
    {
        type            wall;
        inGroups        2(seed wall);
        nFaces          6373;
        startFace       59623;
    }
    procBoundary5to3
    {
        type            processor;
        inGroups        1(processor);
        nFaces          1178;
        startFace       65996;
        matchTolerance  0.0001;
        transform       unknown;
        myProcNo        5;
        neighbProcNo    3;
    }
    procBoundary5to4
    {
        type            processor;
        inGroups        1(processor);
        nFaces          104;
        startFace       67174;
        matchTolerance  0.0001;
        transform       unknown;
        myProcNo        5;
        neighbProcNo    4;
    }
    procBoundary5to6
    {
        type            processor;
        inGroups        1(processor);
        nFaces          101;
        startFace       67278;
        matchTolerance  0.0001;
        transform       unknown;
        myProcNo        5;
        neighbProcNo    6;
    }
    procBoundary5to7
    {
        type            processor;
        inGroups        1(processor);
        nFaces          1158;
        startFace       67379;
        matchTolerance  0.0001;
        transform       unknown;
        myProcNo        5;
        neighbProcNo    7;
    }
    procBoundary5to11
    {
        type            processor;
        inGroups        1(processor);
        nFaces          243;
        startFace       68537;
        matchTolerance  0.0001;
        transform       unknown;
        myProcNo        5;
        neighbProcNo    11;
    }
    procBoundary5to13
    {
        type            processor;
        inGroups        1(processor);
        nFaces          1572;
        startFace       68780;
        matchTolerance  0.0001;
        transform       unknown;
        myProcNo        5;
        neighbProcNo    13;
    }
    procBoundary5to15
    {
        type            processor;
        inGroups        1(processor);
        nFaces          562;
        startFace       70352;
        matchTolerance  0.0001;
        transform       unknown;
        myProcNo        5;
        neighbProcNo    15;
    }
    procBoundary5to19
    {
        type            processor;
        inGroups        1(processor);
        nFaces          21;
        startFace       70914;
        matchTolerance  0.0001;
        transform       unknown;
        myProcNo        5;
        neighbProcNo    19;
    }
    procBoundary5to21
    {
        type            processor;
        inGroups        1(processor);
        nFaces          12;
        startFace       70935;
        matchTolerance  0.0001;
        transform       unknown;
        myProcNo        5;
        neighbProcNo    21;
    }
    procBoundary5to29
    {
        type            processor;
        inGroups        1(processor);
        nFaces          21;
        startFace       70947;
        matchTolerance  0.0001;
        transform       unknown;
        myProcNo        5;
        neighbProcNo    29;
    }
)

// ************************************************************************* //
