/*--------------------------------*- C++ -*----------------------------------*\
| =========                 |                                                 |
| \\      /  F ield         | OpenFOAM: The Open Source CFD Toolbox           |
|  \\    /   O peration     | Version:  2406                                  |
|   \\  /    A nd           | Website:  www.openfoam.com                      |
|    \\/     M anipulation  |                                                 |
\*---------------------------------------------------------------------------*/
FoamFile
{
    version     2.0;
    format      binary;
    arch        "LSB;label=32;scalar=64";
    class       polyBoundaryMesh;
    location    "constant/polyMesh";
    object      boundary;
}
// * * * * * * * * * * * * * * * * * * * * * * * * * * * * * * * * * * * * * //

8
(
    oversetPatch
    {
        type            overset;
        inGroups        1(overset);
        nFaces          675;
        startFace       74627;
    }
    seed
    {
        type            wall;
        inGroups        2(seed wall);
        nFaces          7648;
        startFace       75302;
    }
    procBoundary5to2
    {
        type            processor;
        inGroups        1(processor);
        nFaces          671;
        startFace       82950;
        matchTolerance  0.0001;
        transform       unknown;
        myProcNo        5;
        neighbProcNo    2;
    }
    procBoundary5to3
    {
        type            processor;
        inGroups        1(processor);
        nFaces          220;
        startFace       83621;
        matchTolerance  0.0001;
        transform       unknown;
        myProcNo        5;
        neighbProcNo    3;
    }
    procBoundary5to4
    {
        type            processor;
        inGroups        1(processor);
        nFaces          403;
        startFace       83841;
        matchTolerance  0.0001;
        transform       unknown;
        myProcNo        5;
        neighbProcNo    4;
    }
    procBoundary5to8
    {
        type            processor;
        inGroups        1(processor);
        nFaces          143;
        startFace       84244;
        matchTolerance  0.0001;
        transform       unknown;
        myProcNo        5;
        neighbProcNo    8;
    }
    procBoundary5to10
    {
        type            processor;
        inGroups        1(processor);
        nFaces          66;
        startFace       84387;
        matchTolerance  0.0001;
        transform       unknown;
        myProcNo        5;
        neighbProcNo    10;
    }
    procBoundary5to11
    {
        type            processor;
        inGroups        1(processor);
        nFaces          1868;
        startFace       84453;
        matchTolerance  0.0001;
        transform       unknown;
        myProcNo        5;
        neighbProcNo    11;
    }
)

// ************************************************************************* //
