/*--------------------------------*- C++ -*----------------------------------*\
| =========                 |                                                 |
| \\      /  F ield         | OpenFOAM: The Open Source CFD Toolbox           |
|  \\    /   O peration     | Version:  2406                                  |
|   \\  /    A nd           | Website:  www.openfoam.com                      |
|    \\/     M anipulation  |                                                 |
\*---------------------------------------------------------------------------*/
FoamFile
{
    version     2.0;
    format      binary;
    arch        "LSB;label=32;scalar=64";
    class       polyBoundaryMesh;
    location    "constant/polyMesh";
    object      boundary;
}
// * * * * * * * * * * * * * * * * * * * * * * * * * * * * * * * * * * * * * //

10
(
    oversetPatch
    {
        type            overset;
        inGroups        1(overset);
        nFaces          53;
        startFace       78094;
    }
    seed
    {
        type            wall;
        inGroups        2(seed wall);
        nFaces          10190;
        startFace       78147;
    }
    procBoundary5to3
    {
        type            processor;
        inGroups        1(processor);
        nFaces          1271;
        startFace       88337;
        matchTolerance  0.0001;
        transform       unknown;
        myProcNo        5;
        neighbProcNo    3;
    }
    procBoundary5to4
    {
        type            processor;
        inGroups        1(processor);
        nFaces          108;
        startFace       89608;
        matchTolerance  0.0001;
        transform       unknown;
        myProcNo        5;
        neighbProcNo    4;
    }
    procBoundary5to6
    {
        type            processor;
        inGroups        1(processor);
        nFaces          129;
        startFace       89716;
        matchTolerance  0.0001;
        transform       unknown;
        myProcNo        5;
        neighbProcNo    6;
    }
    procBoundary5to7
    {
        type            processor;
        inGroups        1(processor);
        nFaces          1383;
        startFace       89845;
        matchTolerance  0.0001;
        transform       unknown;
        myProcNo        5;
        neighbProcNo    7;
    }
    procBoundary5to11
    {
        type            processor;
        inGroups        1(processor);
        nFaces          255;
        startFace       91228;
        matchTolerance  0.0001;
        transform       unknown;
        myProcNo        5;
        neighbProcNo    11;
    }
    procBoundary5to13
    {
        type            processor;
        inGroups        1(processor);
        nFaces          3040;
        startFace       91483;
        matchTolerance  0.0001;
        transform       unknown;
        myProcNo        5;
        neighbProcNo    13;
    }
    procBoundary5to15
    {
        type            processor;
        inGroups        1(processor);
        nFaces          406;
        startFace       94523;
        matchTolerance  0.0001;
        transform       unknown;
        myProcNo        5;
        neighbProcNo    15;
    }
    procBoundary5to21
    {
        type            processor;
        inGroups        1(processor);
        nFaces          21;
        startFace       94929;
        matchTolerance  0.0001;
        transform       unknown;
        myProcNo        5;
        neighbProcNo    21;
    }
)

// ************************************************************************* //
