/*--------------------------------*- C++ -*----------------------------------*\
| =========                 |                                                 |
| \\      /  F ield         | OpenFOAM: The Open Source CFD Toolbox           |
|  \\    /   O peration     | Version:  2406                                  |
|   \\  /    A nd           | Website:  www.openfoam.com                      |
|    \\/     M anipulation  |                                                 |
\*---------------------------------------------------------------------------*/
FoamFile
{
    version     2.0;
    format      ascii;
    arch        "LSB;label=32;scalar=64";
    class       polyBoundaryMesh;
    location    "constant/polyMesh";
    object      boundary;
}
// * * * * * * * * * * * * * * * * * * * * * * * * * * * * * * * * * * * * * //

13
(
    wall
    {
        type            patch;
        nFaces          1356;
        startFace       80063;
    }
    inlet
    {
        type            wall;
        inGroups        1(wall);
        nFaces          0;
        startFace       81419;
    }
    outlet
    {
        type            wall;
        inGroups        1(wall);
        nFaces          0;
        startFace       81419;
    }
    oversetPatch
    {
        type            overset;
        inGroups        1(overset);
        nFaces          1456;
        startFace       81419;
    }
    seed
    {
        type            wall;
        inGroups        2(seed wall);
        nFaces          0;
        startFace       82875;
    }
    procBoundary17to9
    {
        type            processor;
        inGroups        1(processor);
        nFaces          1265;
        startFace       82875;
        matchTolerance  0.0001;
        transform       unknown;
        myProcNo        17;
        neighbProcNo    9;
    }
    procBoundary17to16
    {
        type            processor;
        inGroups        1(processor);
        nFaces          1146;
        startFace       84140;
        matchTolerance  0.0001;
        transform       unknown;
        myProcNo        17;
        neighbProcNo    16;
    }
    procBoundary17to23
    {
        type            processor;
        inGroups        1(processor);
        nFaces          629;
        startFace       85286;
        matchTolerance  0.0001;
        transform       unknown;
        myProcNo        17;
        neighbProcNo    23;
    }
    procBoundary17to24
    {
        type            processor;
        inGroups        1(processor);
        nFaces          40;
        startFace       85915;
        matchTolerance  0.0001;
        transform       unknown;
        myProcNo        17;
        neighbProcNo    24;
    }
    procBoundary17to25
    {
        type            processor;
        inGroups        1(processor);
        nFaces          662;
        startFace       85955;
        matchTolerance  0.0001;
        transform       unknown;
        myProcNo        17;
        neighbProcNo    25;
    }
    procBoundary17to27
    {
        type            processor;
        inGroups        1(processor);
        nFaces          702;
        startFace       86617;
        matchTolerance  0.0001;
        transform       unknown;
        myProcNo        17;
        neighbProcNo    27;
    }
    procBoundary17to29
    {
        type            processor;
        inGroups        1(processor);
        nFaces          8;
        startFace       87319;
        matchTolerance  0.0001;
        transform       unknown;
        myProcNo        17;
        neighbProcNo    29;
    }
    procBoundary17to31
    {
        type            processor;
        inGroups        1(processor);
        nFaces          25;
        startFace       87327;
        matchTolerance  0.0001;
        transform       unknown;
        myProcNo        17;
        neighbProcNo    31;
    }
)

// ************************************************************************* //
