/*--------------------------------*- C++ -*----------------------------------*\
| =========                 |                                                 |
| \\      /  F ield         | OpenFOAM: The Open Source CFD Toolbox           |
|  \\    /   O peration     | Version:  2406                                  |
|   \\  /    A nd           | Website:  www.openfoam.com                      |
|    \\/     M anipulation  |                                                 |
\*---------------------------------------------------------------------------*/
FoamFile
{
    version     2.0;
    format      binary;
    arch        "LSB;label=32;scalar=64";
    class       polyBoundaryMesh;
    location    "constant/polyMesh";
    object      boundary;
}
// * * * * * * * * * * * * * * * * * * * * * * * * * * * * * * * * * * * * * //

10
(
    oversetPatch
    {
        type            overset;
        inGroups        1(overset);
        nFaces          0;
        startFace       57145;
    }
    seed
    {
        type            wall;
        inGroups        2(seed wall);
        nFaces          8885;
        startFace       57145;
    }
    procBoundary10to0
    {
        type            processor;
        inGroups        1(processor);
        nFaces          555;
        startFace       66030;
        matchTolerance  0.0001;
        transform       unknown;
        myProcNo        10;
        neighbProcNo    0;
    }
    procBoundary10to2
    {
        type            processor;
        inGroups        1(processor);
        nFaces          2017;
        startFace       66585;
        matchTolerance  0.0001;
        transform       unknown;
        myProcNo        10;
        neighbProcNo    2;
    }
    procBoundary10to8
    {
        type            processor;
        inGroups        1(processor);
        nFaces          198;
        startFace       68602;
        matchTolerance  0.0001;
        transform       unknown;
        myProcNo        10;
        neighbProcNo    8;
    }
    procBoundary10to12
    {
        type            processor;
        inGroups        1(processor);
        nFaces          641;
        startFace       68800;
        matchTolerance  0.0001;
        transform       unknown;
        myProcNo        10;
        neighbProcNo    12;
    }
    procBoundary10to17
    {
        type            processor;
        inGroups        1(processor);
        nFaces          18;
        startFace       69441;
        matchTolerance  0.0001;
        transform       unknown;
        myProcNo        10;
        neighbProcNo    17;
    }
    procBoundary10to18
    {
        type            processor;
        inGroups        1(processor);
        nFaces          2661;
        startFace       69459;
        matchTolerance  0.0001;
        transform       unknown;
        myProcNo        10;
        neighbProcNo    18;
    }
    procBoundary10to20
    {
        type            processor;
        inGroups        1(processor);
        nFaces          3;
        startFace       72120;
        matchTolerance  0.0001;
        transform       unknown;
        myProcNo        10;
        neighbProcNo    20;
    }
    procBoundary10to26
    {
        type            processor;
        inGroups        1(processor);
        nFaces          4;
        startFace       72123;
        matchTolerance  0.0001;
        transform       unknown;
        myProcNo        10;
        neighbProcNo    26;
    }
)

// ************************************************************************* //
