/*--------------------------------*- C++ -*----------------------------------*\
| =========                 |                                                 |
| \\      /  F ield         | OpenFOAM: The Open Source CFD Toolbox           |
|  \\    /   O peration     | Version:  2406                                  |
|   \\  /    A nd           | Website:  www.openfoam.com                      |
|    \\/     M anipulation  |                                                 |
\*---------------------------------------------------------------------------*/
FoamFile
{
    version     2.0;
    format      binary;
    arch        "LSB;label=32;scalar=64";
    class       polyBoundaryMesh;
    location    "constant/polyMesh";
    object      boundary;
}
// * * * * * * * * * * * * * * * * * * * * * * * * * * * * * * * * * * * * * //

9
(
    oversetPatch
    {
        type            overset;
        inGroups        1(overset);
        nFaces          0;
        startFace       75114;
    }
    seed
    {
        type            wall;
        inGroups        2(seed wall);
        nFaces          7877;
        startFace       75114;
    }
    procBoundary10to3
    {
        type            processor;
        inGroups        1(processor);
        nFaces          392;
        startFace       82991;
        matchTolerance  0.0001;
        transform       unknown;
        myProcNo        10;
        neighbProcNo    3;
    }
    procBoundary10to4
    {
        type            processor;
        inGroups        1(processor);
        nFaces          3849;
        startFace       83383;
        matchTolerance  0.0001;
        transform       unknown;
        myProcNo        10;
        neighbProcNo    4;
    }
    procBoundary10to5
    {
        type            processor;
        inGroups        1(processor);
        nFaces          66;
        startFace       87232;
        matchTolerance  0.0001;
        transform       unknown;
        myProcNo        10;
        neighbProcNo    5;
    }
    procBoundary10to7
    {
        type            processor;
        inGroups        1(processor);
        nFaces          680;
        startFace       87298;
        matchTolerance  0.0001;
        transform       unknown;
        myProcNo        10;
        neighbProcNo    7;
    }
    procBoundary10to8
    {
        type            processor;
        inGroups        1(processor);
        nFaces          114;
        startFace       87978;
        matchTolerance  0.0001;
        transform       unknown;
        myProcNo        10;
        neighbProcNo    8;
    }
    procBoundary10to9
    {
        type            processor;
        inGroups        1(processor);
        nFaces          171;
        startFace       88092;
        matchTolerance  0.0001;
        transform       unknown;
        myProcNo        10;
        neighbProcNo    9;
    }
    procBoundary10to11
    {
        type            processor;
        inGroups        1(processor);
        nFaces          305;
        startFace       88263;
        matchTolerance  0.0001;
        transform       unknown;
        myProcNo        10;
        neighbProcNo    11;
    }
)

// ************************************************************************* //
