/*--------------------------------*- C++ -*----------------------------------*\
| =========                 |                                                 |
| \\      /  F ield         | OpenFOAM: The Open Source CFD Toolbox           |
|  \\    /   O peration     | Version:  2406                                  |
|   \\  /    A nd           | Website:  www.openfoam.com                      |
|    \\/     M anipulation  |                                                 |
\*---------------------------------------------------------------------------*/
FoamFile
{
    version     2.0;
    format      ascii;
    arch        "LSB;label=32;scalar=64";
    class       volScalarField;
    location    "0";
    object      zoneID;
}
// * * * * * * * * * * * * * * * * * * * * * * * * * * * * * * * * * * * * * //

dimensions      [0 0 0 0 0 0 0];

internalField   uniform 1;

boundaryField
{
    wall
    {
        type            zeroGradient;
    }
    inlet
    {
        type            zeroGradient;
    }
    outlet
    {
        type            zeroGradient;
    }
    oversetPatch
    {
        type            overset;
        value           uniform 1;
    }
    seed
    {
        type            zeroGradient;
    }
    procBoundary11to2
    {
        type            processor;
        value           uniform 1;
    }
    procBoundary11to3
    {
        type            processor;
        value           uniform 1;
    }
    procBoundary11to4
    {
        type            processor;
        value           uniform 1;
    }
    procBoundary11to5
    {
        type            processor;
        value           uniform 1;
    }
    procBoundary11to9
    {
        type            processor;
        value           uniform 1;
    }
    procBoundary11to13
    {
        type            processor;
        value           uniform 1;
    }
    procBoundary11to19
    {
        type            processor;
        value           uniform 1;
    }
    procBoundary11to27
    {
        type            processor;
        value           uniform 1;
    }
}


// ************************************************************************* //
