/*--------------------------------*- C++ -*----------------------------------*\
| =========                 |                                                 |
| \\      /  F ield         | OpenFOAM: The Open Source CFD Toolbox           |
|  \\    /   O peration     | Version:  2406                                  |
|   \\  /    A nd           | Website:  www.openfoam.com                      |
|    \\/     M anipulation  |                                                 |
\*---------------------------------------------------------------------------*/
FoamFile
{
    version     2.0;
    format      ascii;
    arch        "LSB;label=32;scalar=64";
    class       polyBoundaryMesh;
    location    "constant/polyMesh";
    object      boundary;
}
// * * * * * * * * * * * * * * * * * * * * * * * * * * * * * * * * * * * * * //

15
(
    wall
    {
        type            patch;
        nFaces          0;
        startFace       84456;
    }
    inlet
    {
        type            wall;
        inGroups        1(wall);
        nFaces          0;
        startFace       84456;
    }
    outlet
    {
        type            wall;
        inGroups        1(wall);
        nFaces          0;
        startFace       84456;
    }
    oversetPatch
    {
        type            overset;
        inGroups        1(overset);
        nFaces          154;
        startFace       84456;
    }
    seed
    {
        type            wall;
        inGroups        2(seed wall);
        nFaces          5289;
        startFace       84610;
    }
    procBoundary28to4
    {
        type            processor;
        inGroups        1(processor);
        nFaces          38;
        startFace       89899;
        matchTolerance  0.0001;
        transform       unknown;
        myProcNo        28;
        neighbProcNo    4;
    }
    procBoundary28to8
    {
        type            processor;
        inGroups        1(processor);
        nFaces          35;
        startFace       89937;
        matchTolerance  0.0001;
        transform       unknown;
        myProcNo        28;
        neighbProcNo    8;
    }
    procBoundary28to14
    {
        type            processor;
        inGroups        1(processor);
        nFaces          1140;
        startFace       89972;
        matchTolerance  0.0001;
        transform       unknown;
        myProcNo        28;
        neighbProcNo    14;
    }
    procBoundary28to16
    {
        type            processor;
        inGroups        1(processor);
        nFaces          258;
        startFace       91112;
        matchTolerance  0.0001;
        transform       unknown;
        myProcNo        28;
        neighbProcNo    16;
    }
    procBoundary28to20
    {
        type            processor;
        inGroups        1(processor);
        nFaces          3420;
        startFace       91370;
        matchTolerance  0.0001;
        transform       unknown;
        myProcNo        28;
        neighbProcNo    20;
    }
    procBoundary28to22
    {
        type            processor;
        inGroups        1(processor);
        nFaces          612;
        startFace       94790;
        matchTolerance  0.0001;
        transform       unknown;
        myProcNo        28;
        neighbProcNo    22;
    }
    procBoundary28to24
    {
        type            processor;
        inGroups        1(processor);
        nFaces          4;
        startFace       95402;
        matchTolerance  0.0001;
        transform       unknown;
        myProcNo        28;
        neighbProcNo    24;
    }
    procBoundary28to26
    {
        type            processor;
        inGroups        1(processor);
        nFaces          1740;
        startFace       95406;
        matchTolerance  0.0001;
        transform       unknown;
        myProcNo        28;
        neighbProcNo    26;
    }
    procBoundary28to27
    {
        type            processor;
        inGroups        1(processor);
        nFaces          138;
        startFace       97146;
        matchTolerance  0.0001;
        transform       unknown;
        myProcNo        28;
        neighbProcNo    27;
    }
    procBoundary28to29
    {
        type            processor;
        inGroups        1(processor);
        nFaces          68;
        startFace       97284;
        matchTolerance  0.0001;
        transform       unknown;
        myProcNo        28;
        neighbProcNo    29;
    }
)

// ************************************************************************* //
