/*--------------------------------*- C++ -*----------------------------------*\
| =========                 |                                                 |
| \\      /  F ield         | OpenFOAM: The Open Source CFD Toolbox           |
|  \\    /   O peration     | Version:  2406                                  |
|   \\  /    A nd           | Website:  www.openfoam.com                      |
|    \\/     M anipulation  |                                                 |
\*---------------------------------------------------------------------------*/
FoamFile
{
    version     2.0;
    format      binary;
    arch        "LSB;label=32;scalar=64";
    class       polyBoundaryMesh;
    location    "constant/polyMesh";
    object      boundary;
}
// * * * * * * * * * * * * * * * * * * * * * * * * * * * * * * * * * * * * * //

13
(
    oversetPatch
    {
        type            overset;
        inGroups        1(overset);
        nFaces          0;
        startFace       59242;
    }
    seed
    {
        type            wall;
        inGroups        2(seed wall);
        nFaces          5191;
        startFace       59242;
    }
    procBoundary20to10
    {
        type            processor;
        inGroups        1(processor);
        nFaces          3;
        startFace       64433;
        matchTolerance  0.0001;
        transform       unknown;
        myProcNo        20;
        neighbProcNo    10;
    }
    procBoundary20to12
    {
        type            processor;
        inGroups        1(processor);
        nFaces          1723;
        startFace       64436;
        matchTolerance  0.0001;
        transform       unknown;
        myProcNo        20;
        neighbProcNo    12;
    }
    procBoundary20to14
    {
        type            processor;
        inGroups        1(processor);
        nFaces          1084;
        startFace       66159;
        matchTolerance  0.0001;
        transform       unknown;
        myProcNo        20;
        neighbProcNo    14;
    }
    procBoundary20to17
    {
        type            processor;
        inGroups        1(processor);
        nFaces          11;
        startFace       67243;
        matchTolerance  0.0001;
        transform       unknown;
        myProcNo        20;
        neighbProcNo    17;
    }
    procBoundary20to18
    {
        type            processor;
        inGroups        1(processor);
        nFaces          256;
        startFace       67254;
        matchTolerance  0.0001;
        transform       unknown;
        myProcNo        20;
        neighbProcNo    18;
    }
    procBoundary20to21
    {
        type            processor;
        inGroups        1(processor);
        nFaces          6;
        startFace       67510;
        matchTolerance  0.0001;
        transform       unknown;
        myProcNo        20;
        neighbProcNo    21;
    }
    procBoundary20to22
    {
        type            processor;
        inGroups        1(processor);
        nFaces          1040;
        startFace       67516;
        matchTolerance  0.0001;
        transform       unknown;
        myProcNo        20;
        neighbProcNo    22;
    }
    procBoundary20to26
    {
        type            processor;
        inGroups        1(processor);
        nFaces          425;
        startFace       68556;
        matchTolerance  0.0001;
        transform       unknown;
        myProcNo        20;
        neighbProcNo    26;
    }
    procBoundary20to27
    {
        type            processor;
        inGroups        1(processor);
        nFaces          88;
        startFace       68981;
        matchTolerance  0.0001;
        transform       unknown;
        myProcNo        20;
        neighbProcNo    27;
    }
    procBoundary20to28
    {
        type            processor;
        inGroups        1(processor);
        nFaces          3326;
        startFace       69069;
        matchTolerance  0.0001;
        transform       unknown;
        myProcNo        20;
        neighbProcNo    28;
    }
    procBoundary20to29
    {
        type            processor;
        inGroups        1(processor);
        nFaces          23;
        startFace       72395;
        matchTolerance  0.0001;
        transform       unknown;
        myProcNo        20;
        neighbProcNo    29;
    }
)

// ************************************************************************* //
