/*--------------------------------*- C++ -*----------------------------------*\
| =========                 |                                                 |
| \\      /  F ield         | OpenFOAM: The Open Source CFD Toolbox           |
|  \\    /   O peration     | Version:  2406                                  |
|   \\  /    A nd           | Website:  www.openfoam.com                      |
|    \\/     M anipulation  |                                                 |
\*---------------------------------------------------------------------------*/
FoamFile
{
    version     2.0;
    format      binary;
    arch        "LSB;label=32;scalar=64";
    class       polyBoundaryMesh;
    location    "constant/polyMesh";
    object      boundary;
}
// * * * * * * * * * * * * * * * * * * * * * * * * * * * * * * * * * * * * * //

10
(
    oversetPatch
    {
        type            overset;
        inGroups        1(overset);
        nFaces          1;
        startFace       56201;
    }
    seed
    {
        type            wall;
        inGroups        2(seed wall);
        nFaces          10728;
        startFace       56202;
    }
    procBoundary11to3
    {
        type            processor;
        inGroups        1(processor);
        nFaces          1110;
        startFace       66930;
        matchTolerance  0.0001;
        transform       unknown;
        myProcNo        11;
        neighbProcNo    3;
    }
    procBoundary11to4
    {
        type            processor;
        inGroups        1(processor);
        nFaces          337;
        startFace       68040;
        matchTolerance  0.0001;
        transform       unknown;
        myProcNo        11;
        neighbProcNo    4;
    }
    procBoundary11to5
    {
        type            processor;
        inGroups        1(processor);
        nFaces          243;
        startFace       68377;
        matchTolerance  0.0001;
        transform       unknown;
        myProcNo        11;
        neighbProcNo    5;
    }
    procBoundary11to9
    {
        type            processor;
        inGroups        1(processor);
        nFaces          719;
        startFace       68620;
        matchTolerance  0.0001;
        transform       unknown;
        myProcNo        11;
        neighbProcNo    9;
    }
    procBoundary11to13
    {
        type            processor;
        inGroups        1(processor);
        nFaces          4;
        startFace       69339;
        matchTolerance  0.0001;
        transform       unknown;
        myProcNo        11;
        neighbProcNo    13;
    }
    procBoundary11to17
    {
        type            processor;
        inGroups        1(processor);
        nFaces          33;
        startFace       69343;
        matchTolerance  0.0001;
        transform       unknown;
        myProcNo        11;
        neighbProcNo    17;
    }
    procBoundary11to19
    {
        type            processor;
        inGroups        1(processor);
        nFaces          3445;
        startFace       69376;
        matchTolerance  0.0001;
        transform       unknown;
        myProcNo        11;
        neighbProcNo    19;
    }
    procBoundary11to27
    {
        type            processor;
        inGroups        1(processor);
        nFaces          34;
        startFace       72821;
        matchTolerance  0.0001;
        transform       unknown;
        myProcNo        11;
        neighbProcNo    27;
    }
)

// ************************************************************************* //
