/*--------------------------------*- C++ -*----------------------------------*\
| =========                 |                                                 |
| \\      /  F ield         | OpenFOAM: The Open Source CFD Toolbox           |
|  \\    /   O peration     | Version:  2406                                  |
|   \\  /    A nd           | Website:  www.openfoam.com                      |
|    \\/     M anipulation  |                                                 |
\*---------------------------------------------------------------------------*/
FoamFile
{
    version     2.0;
    format      binary;
    arch        "LSB;label=32;scalar=64";
    class       polyBoundaryMesh;
    location    "constant/polyMesh";
    object      boundary;
}
// * * * * * * * * * * * * * * * * * * * * * * * * * * * * * * * * * * * * * //

8
(
    oversetPatch
    {
        type            overset;
        inGroups        1(overset);
        nFaces          0;
        startFace       77060;
    }
    seed
    {
        type            wall;
        inGroups        2(seed wall);
        nFaces          12769;
        startFace       77060;
    }
    procBoundary11to3
    {
        type            processor;
        inGroups        1(processor);
        nFaces          1597;
        startFace       89829;
        matchTolerance  0.0001;
        transform       unknown;
        myProcNo        11;
        neighbProcNo    3;
    }
    procBoundary11to4
    {
        type            processor;
        inGroups        1(processor);
        nFaces          338;
        startFace       91426;
        matchTolerance  0.0001;
        transform       unknown;
        myProcNo        11;
        neighbProcNo    4;
    }
    procBoundary11to5
    {
        type            processor;
        inGroups        1(processor);
        nFaces          255;
        startFace       91764;
        matchTolerance  0.0001;
        transform       unknown;
        myProcNo        11;
        neighbProcNo    5;
    }
    procBoundary11to9
    {
        type            processor;
        inGroups        1(processor);
        nFaces          714;
        startFace       92019;
        matchTolerance  0.0001;
        transform       unknown;
        myProcNo        11;
        neighbProcNo    9;
    }
    procBoundary11to13
    {
        type            processor;
        inGroups        1(processor);
        nFaces          66;
        startFace       92733;
        matchTolerance  0.0001;
        transform       unknown;
        myProcNo        11;
        neighbProcNo    13;
    }
    procBoundary11to19
    {
        type            processor;
        inGroups        1(processor);
        nFaces          2454;
        startFace       92799;
        matchTolerance  0.0001;
        transform       unknown;
        myProcNo        11;
        neighbProcNo    19;
    }
)

// ************************************************************************* //
