/*--------------------------------*- C++ -*----------------------------------*\
| =========                 |                                                 |
| \\      /  F ield         | OpenFOAM: The Open Source CFD Toolbox           |
|  \\    /   O peration     | Version:  2406                                  |
|   \\  /    A nd           | Website:  www.openfoam.com                      |
|    \\/     M anipulation  |                                                 |
\*---------------------------------------------------------------------------*/
FoamFile
{
    version     2.0;
    format      binary;
    arch        "LSB;label=32;scalar=64";
    class       polyBoundaryMesh;
    location    "constant/polyMesh";
    object      boundary;
}
// * * * * * * * * * * * * * * * * * * * * * * * * * * * * * * * * * * * * * //

7
(
    oversetPatch
    {
        type            overset;
        inGroups        1(overset);
        nFaces          1575;
        startFace       74393;
    }
    seed
    {
        type            wall;
        inGroups        2(seed wall);
        nFaces          4545;
        startFace       75968;
    }
    procBoundary11to2
    {
        type            processor;
        inGroups        1(processor);
        nFaces          1;
        startFace       80513;
        matchTolerance  0.0001;
        transform       unknown;
        myProcNo        11;
        neighbProcNo    2;
    }
    procBoundary11to5
    {
        type            processor;
        inGroups        1(processor);
        nFaces          1868;
        startFace       80514;
        matchTolerance  0.0001;
        transform       unknown;
        myProcNo        11;
        neighbProcNo    5;
    }
    procBoundary11to8
    {
        type            processor;
        inGroups        1(processor);
        nFaces          1041;
        startFace       82382;
        matchTolerance  0.0001;
        transform       unknown;
        myProcNo        11;
        neighbProcNo    8;
    }
    procBoundary11to9
    {
        type            processor;
        inGroups        1(processor);
        nFaces          673;
        startFace       83423;
        matchTolerance  0.0001;
        transform       unknown;
        myProcNo        11;
        neighbProcNo    9;
    }
    procBoundary11to10
    {
        type            processor;
        inGroups        1(processor);
        nFaces          305;
        startFace       84096;
        matchTolerance  0.0001;
        transform       unknown;
        myProcNo        11;
        neighbProcNo    10;
    }
)

// ************************************************************************* //
