/*--------------------------------*- C++ -*----------------------------------*\
| =========                 |                                                 |
| \\      /  F ield         | OpenFOAM: The Open Source CFD Toolbox           |
|  \\    /   O peration     | Version:  2406                                  |
|   \\  /    A nd           | Website:  www.openfoam.com                      |
|    \\/     M anipulation  |                                                 |
\*---------------------------------------------------------------------------*/
FoamFile
{
    version     2.0;
    format      binary;
    arch        "LSB;label=32;scalar=64";
    class       polyBoundaryMesh;
    location    "constant/polyMesh";
    object      boundary;
}
// * * * * * * * * * * * * * * * * * * * * * * * * * * * * * * * * * * * * * //

9
(
    oversetPatch
    {
        type            overset;
        inGroups        1(overset);
        nFaces          1872;
        startFace       78499;
    }
    seed
    {
        type            wall;
        inGroups        2(seed wall);
        nFaces          1841;
        startFace       80371;
    }
    procBoundary6to4
    {
        type            processor;
        inGroups        1(processor);
        nFaces          926;
        startFace       82212;
        matchTolerance  0.0001;
        transform       unknown;
        myProcNo        6;
        neighbProcNo    4;
    }
    procBoundary6to5
    {
        type            processor;
        inGroups        1(processor);
        nFaces          129;
        startFace       83138;
        matchTolerance  0.0001;
        transform       unknown;
        myProcNo        6;
        neighbProcNo    5;
    }
    procBoundary6to7
    {
        type            processor;
        inGroups        1(processor);
        nFaces          684;
        startFace       83267;
        matchTolerance  0.0001;
        transform       unknown;
        myProcNo        6;
        neighbProcNo    7;
    }
    procBoundary6to12
    {
        type            processor;
        inGroups        1(processor);
        nFaces          1157;
        startFace       83951;
        matchTolerance  0.0001;
        transform       unknown;
        myProcNo        6;
        neighbProcNo    12;
    }
    procBoundary6to13
    {
        type            processor;
        inGroups        1(processor);
        nFaces          222;
        startFace       85108;
        matchTolerance  0.0001;
        transform       unknown;
        myProcNo        6;
        neighbProcNo    13;
    }
    procBoundary6to14
    {
        type            processor;
        inGroups        1(processor);
        nFaces          1870;
        startFace       85330;
        matchTolerance  0.0001;
        transform       unknown;
        myProcNo        6;
        neighbProcNo    14;
    }
    procBoundary6to15
    {
        type            processor;
        inGroups        1(processor);
        nFaces          27;
        startFace       87200;
        matchTolerance  0.0001;
        transform       unknown;
        myProcNo        6;
        neighbProcNo    15;
    }
)

// ************************************************************************* //
