/*--------------------------------*- C++ -*----------------------------------*\
| =========                 |                                                 |
| \\      /  F ield         | OpenFOAM: The Open Source CFD Toolbox           |
|  \\    /   O peration     | Version:  2406                                  |
|   \\  /    A nd           | Website:  www.openfoam.com                      |
|    \\/     M anipulation  |                                                 |
\*---------------------------------------------------------------------------*/
FoamFile
{
    version     2.0;
    format      binary;
    arch        "LSB;label=32;scalar=64";
    class       polyBoundaryMesh;
    location    "constant/polyMesh";
    object      boundary;
}
// * * * * * * * * * * * * * * * * * * * * * * * * * * * * * * * * * * * * * //

11
(
    oversetPatch
    {
        type            overset;
        inGroups        1(overset);
        nFaces          1872;
        startFace       57809;
    }
    seed
    {
        type            wall;
        inGroups        2(seed wall);
        nFaces          822;
        startFace       59681;
    }
    procBoundary6to4
    {
        type            processor;
        inGroups        1(processor);
        nFaces          851;
        startFace       60503;
        matchTolerance  0.0001;
        transform       unknown;
        myProcNo        6;
        neighbProcNo    4;
    }
    procBoundary6to5
    {
        type            processor;
        inGroups        1(processor);
        nFaces          101;
        startFace       61354;
        matchTolerance  0.0001;
        transform       unknown;
        myProcNo        6;
        neighbProcNo    5;
    }
    procBoundary6to7
    {
        type            processor;
        inGroups        1(processor);
        nFaces          660;
        startFace       61455;
        matchTolerance  0.0001;
        transform       unknown;
        myProcNo        6;
        neighbProcNo    7;
    }
    procBoundary6to12
    {
        type            processor;
        inGroups        1(processor);
        nFaces          207;
        startFace       62115;
        matchTolerance  0.0001;
        transform       unknown;
        myProcNo        6;
        neighbProcNo    12;
    }
    procBoundary6to13
    {
        type            processor;
        inGroups        1(processor);
        nFaces          156;
        startFace       62322;
        matchTolerance  0.0001;
        transform       unknown;
        myProcNo        6;
        neighbProcNo    13;
    }
    procBoundary6to14
    {
        type            processor;
        inGroups        1(processor);
        nFaces          1228;
        startFace       62478;
        matchTolerance  0.0001;
        transform       unknown;
        myProcNo        6;
        neighbProcNo    14;
    }
    procBoundary6to15
    {
        type            processor;
        inGroups        1(processor);
        nFaces          42;
        startFace       63706;
        matchTolerance  0.0001;
        transform       unknown;
        myProcNo        6;
        neighbProcNo    15;
    }
    procBoundary6to21
    {
        type            processor;
        inGroups        1(processor);
        nFaces          13;
        startFace       63748;
        matchTolerance  0.0001;
        transform       unknown;
        myProcNo        6;
        neighbProcNo    21;
    }
    procBoundary6to22
    {
        type            processor;
        inGroups        1(processor);
        nFaces          600;
        startFace       63761;
        matchTolerance  0.0001;
        transform       unknown;
        myProcNo        6;
        neighbProcNo    22;
    }
)

// ************************************************************************* //
