/*--------------------------------*- C++ -*----------------------------------*\
| =========                 |                                                 |
| \\      /  F ield         | OpenFOAM: The Open Source CFD Toolbox           |
|  \\    /   O peration     | Version:  2406                                  |
|   \\  /    A nd           | Website:  www.openfoam.com                      |
|    \\/     M anipulation  |                                                 |
\*---------------------------------------------------------------------------*/
FoamFile
{
    version     2.0;
    format      ascii;
    arch        "LSB;label=32;scalar=64";
    class       pointScalarField;
    location    "0";
    object      motionScale;
}
// * * * * * * * * * * * * * * * * * * * * * * * * * * * * * * * * * * * * * //

dimensions      [0 0 0 0 0 0 0];

internalField   uniform 0;

boundaryField
{
    wall
    {
        type            calculated;
    }
    inlet
    {
        type            calculated;
    }
    outlet
    {
        type            calculated;
    }
    oversetPatch
    {
        type            calculated;
    }
    seed
    {
        type            calculated;
    }
    procBoundary30to22
    {
        type            processor;
    }
    procBoundary30to23
    {
        type            processor;
    }
    procBoundary30to24
    {
        type            processor;
    }
    procBoundary30to26
    {
        type            processor;
    }
    procBoundary30to31
    {
        type            processor;
    }
}


// ************************************************************************* //
