/*--------------------------------*- C++ -*----------------------------------*\
| =========                 |                                                 |
| \\      /  F ield         | OpenFOAM: The Open Source CFD Toolbox           |
|  \\    /   O peration     | Version:  2406                                  |
|   \\  /    A nd           | Website:  www.openfoam.com                      |
|    \\/     M anipulation  |                                                 |
\*---------------------------------------------------------------------------*/
FoamFile
{
    version     2.0;
    format      binary;
    arch        "LSB;label=32;scalar=64";
    class       polyBoundaryMesh;
    location    "constant/polyMesh";
    object      boundary;
}
// * * * * * * * * * * * * * * * * * * * * * * * * * * * * * * * * * * * * * //

6
(
    oversetPatch
    {
        type            overset;
        inGroups        1(overset);
        nFaces          2771;
        startFace       77023;
    }
    seed
    {
        type            wall;
        inGroups        2(seed wall);
        nFaces          0;
        startFace       79794;
    }
    procBoundary17to9
    {
        type            processor;
        inGroups        1(processor);
        nFaces          662;
        startFace       79794;
        matchTolerance  0.0001;
        transform       unknown;
        myProcNo        17;
        neighbProcNo    9;
    }
    procBoundary17to16
    {
        type            processor;
        inGroups        1(processor);
        nFaces          975;
        startFace       80456;
        matchTolerance  0.0001;
        transform       unknown;
        myProcNo        17;
        neighbProcNo    16;
    }
    procBoundary17to18
    {
        type            processor;
        inGroups        1(processor);
        nFaces          42;
        startFace       81431;
        matchTolerance  0.0001;
        transform       unknown;
        myProcNo        17;
        neighbProcNo    18;
    }
    procBoundary17to19
    {
        type            processor;
        inGroups        1(processor);
        nFaces          1092;
        startFace       81473;
        matchTolerance  0.0001;
        transform       unknown;
        myProcNo        17;
        neighbProcNo    19;
    }
)

// ************************************************************************* //
