/*--------------------------------*- C++ -*----------------------------------*\
| =========                 |                                                 |
| \\      /  F ield         | OpenFOAM: The Open Source CFD Toolbox           |
|  \\    /   O peration     | Version:  2406                                  |
|   \\  /    A nd           | Website:  www.openfoam.com                      |
|    \\/     M anipulation  |                                                 |
\*---------------------------------------------------------------------------*/
FoamFile
{
    version     2.0;
    format      binary;
    arch        "LSB;label=32;scalar=64";
    class       polyBoundaryMesh;
    location    "constant/polyMesh";
    object      boundary;
}
// * * * * * * * * * * * * * * * * * * * * * * * * * * * * * * * * * * * * * //

10
(
    oversetPatch
    {
        type            overset;
        inGroups        1(overset);
        nFaces          80;
        startFace       59917;
    }
    seed
    {
        type            wall;
        inGroups        2(seed wall);
        nFaces          3699;
        startFace       59997;
    }
    procBoundary28to4
    {
        type            processor;
        inGroups        1(processor);
        nFaces          34;
        startFace       63696;
        matchTolerance  0.0001;
        transform       unknown;
        myProcNo        28;
        neighbProcNo    4;
    }
    procBoundary28to17
    {
        type            processor;
        inGroups        1(processor);
        nFaces          4;
        startFace       63730;
        matchTolerance  0.0001;
        transform       unknown;
        myProcNo        28;
        neighbProcNo    17;
    }
    procBoundary28to20
    {
        type            processor;
        inGroups        1(processor);
        nFaces          3326;
        startFace       63734;
        matchTolerance  0.0001;
        transform       unknown;
        myProcNo        28;
        neighbProcNo    20;
    }
    procBoundary28to22
    {
        type            processor;
        inGroups        1(processor);
        nFaces          777;
        startFace       67060;
        matchTolerance  0.0001;
        transform       unknown;
        myProcNo        28;
        neighbProcNo    22;
    }
    procBoundary28to26
    {
        type            processor;
        inGroups        1(processor);
        nFaces          1655;
        startFace       67837;
        matchTolerance  0.0001;
        transform       unknown;
        myProcNo        28;
        neighbProcNo    26;
    }
    procBoundary28to27
    {
        type            processor;
        inGroups        1(processor);
        nFaces          68;
        startFace       69492;
        matchTolerance  0.0001;
        transform       unknown;
        myProcNo        28;
        neighbProcNo    27;
    }
    procBoundary28to29
    {
        type            processor;
        inGroups        1(processor);
        nFaces          30;
        startFace       69560;
        matchTolerance  0.0001;
        transform       unknown;
        myProcNo        28;
        neighbProcNo    29;
    }
    procBoundary28to30
    {
        type            processor;
        inGroups        1(processor);
        nFaces          833;
        startFace       69590;
        matchTolerance  0.0001;
        transform       unknown;
        myProcNo        28;
        neighbProcNo    30;
    }
)

// ************************************************************************* //
