/*--------------------------------*- C++ -*----------------------------------*\
| =========                 |                                                 |
| \\      /  F ield         | OpenFOAM: The Open Source CFD Toolbox           |
|  \\    /   O peration     | Version:  2406                                  |
|   \\  /    A nd           | Website:  www.openfoam.com                      |
|    \\/     M anipulation  |                                                 |
\*---------------------------------------------------------------------------*/
FoamFile
{
    version     2.0;
    format      ascii;
    arch        "LSB;label=32;scalar=64";
    class       polyBoundaryMesh;
    location    "constant/polyMesh";
    object      boundary;
}
// * * * * * * * * * * * * * * * * * * * * * * * * * * * * * * * * * * * * * //

11
(
    wall
    {
        type            wall;
        inGroups        1(wall);
        nFaces          450;
        startFace       87363;
    }
    inlet
    {
        type            patch;
        nFaces          225;
        startFace       87813;
    }
    outlet
    {
        type            patch;
        nFaces          0;
        startFace       88038;
    }
    oversetPatch
    {
        type            overset;
        inGroups        1(overset);
        nFaces          675;
        startFace       88038;
    }
    seed
    {
        type            wall;
        inGroups        2(seed wall);
        nFaces          7798;
        startFace       88713;
    }
    procBoundary0to1
    {
        type            processor;
        inGroups        1(processor);
        nFaces          181;
        startFace       96511;
        matchTolerance  0.0001;
        transform       unknown;
        myProcNo        0;
        neighbProcNo    1;
    }
    procBoundary0to2
    {
        type            processor;
        inGroups        1(processor);
        nFaces          445;
        startFace       96692;
        matchTolerance  0.0001;
        transform       unknown;
        myProcNo        0;
        neighbProcNo    2;
    }
    procBoundary0to3
    {
        type            processor;
        inGroups        1(processor);
        nFaces          1003;
        startFace       97137;
        matchTolerance  0.0001;
        transform       unknown;
        myProcNo        0;
        neighbProcNo    3;
    }
    procBoundary0to6
    {
        type            processor;
        inGroups        1(processor);
        nFaces          3206;
        startFace       98140;
        matchTolerance  0.0001;
        transform       unknown;
        myProcNo        0;
        neighbProcNo    6;
    }
    procBoundary0to7
    {
        type            processor;
        inGroups        1(processor);
        nFaces          448;
        startFace       101346;
        matchTolerance  0.0001;
        transform       unknown;
        myProcNo        0;
        neighbProcNo    7;
    }
    procBoundary0to9
    {
        type            processor;
        inGroups        1(processor);
        nFaces          1;
        startFace       101794;
        matchTolerance  0.0001;
        transform       unknown;
        myProcNo        0;
        neighbProcNo    9;
    }
)

// ************************************************************************* //
