/*--------------------------------*- C++ -*----------------------------------*\
| =========                 |                                                 |
| \\      /  F ield         | OpenFOAM: The Open Source CFD Toolbox           |
|  \\    /   O peration     | Version:  2406                                  |
|   \\  /    A nd           | Website:  www.openfoam.com                      |
|    \\/     M anipulation  |                                                 |
\*---------------------------------------------------------------------------*/
FoamFile
{
    version     2.0;
    format      binary;
    arch        "LSB;label=32;scalar=64";
    class       polyBoundaryMesh;
    location    "constant/polyMesh";
    object      boundary;
}
// * * * * * * * * * * * * * * * * * * * * * * * * * * * * * * * * * * * * * //

9
(
    oversetPatch
    {
        type            overset;
        inGroups        1(overset);
        nFaces          50;
        startFace       59783;
    }
    seed
    {
        type            wall;
        inGroups        2(seed wall);
        nFaces          5766;
        startFace       59833;
    }
    procBoundary15to5
    {
        type            processor;
        inGroups        1(processor);
        nFaces          562;
        startFace       65599;
        matchTolerance  0.0001;
        transform       unknown;
        myProcNo        15;
        neighbProcNo    5;
    }
    procBoundary15to6
    {
        type            processor;
        inGroups        1(processor);
        nFaces          42;
        startFace       66161;
        matchTolerance  0.0001;
        transform       unknown;
        myProcNo        15;
        neighbProcNo    6;
    }
    procBoundary15to7
    {
        type            processor;
        inGroups        1(processor);
        nFaces          1807;
        startFace       66203;
        matchTolerance  0.0001;
        transform       unknown;
        myProcNo        15;
        neighbProcNo    7;
    }
    procBoundary15to13
    {
        type            processor;
        inGroups        1(processor);
        nFaces          246;
        startFace       68010;
        matchTolerance  0.0001;
        transform       unknown;
        myProcNo        15;
        neighbProcNo    13;
    }
    procBoundary15to14
    {
        type            processor;
        inGroups        1(processor);
        nFaces          6;
        startFace       68256;
        matchTolerance  0.0001;
        transform       unknown;
        myProcNo        15;
        neighbProcNo    14;
    }
    procBoundary15to21
    {
        type            processor;
        inGroups        1(processor);
        nFaces          237;
        startFace       68262;
        matchTolerance  0.0001;
        transform       unknown;
        myProcNo        15;
        neighbProcNo    21;
    }
    procBoundary15to23
    {
        type            processor;
        inGroups        1(processor);
        nFaces          1812;
        startFace       68499;
        matchTolerance  0.0001;
        transform       unknown;
        myProcNo        15;
        neighbProcNo    23;
    }
)

// ************************************************************************* //
