/*--------------------------------*- C++ -*----------------------------------*\
| =========                 |                                                 |
| \\      /  F ield         | OpenFOAM: The Open Source CFD Toolbox           |
|  \\    /   O peration     | Version:  2406                                  |
|   \\  /    A nd           | Website:  www.openfoam.com                      |
|    \\/     M anipulation  |                                                 |
\*---------------------------------------------------------------------------*/
FoamFile
{
    version     2.0;
    format      binary;
    arch        "LSB;label=32;scalar=64";
    class       polyBoundaryMesh;
    location    "constant/polyMesh";
    object      boundary;
}
// * * * * * * * * * * * * * * * * * * * * * * * * * * * * * * * * * * * * * //

8
(
    oversetPatch
    {
        type            overset;
        inGroups        1(overset);
        nFaces          0;
        startFace       57755;
    }
    seed
    {
        type            wall;
        inGroups        2(seed wall);
        nFaces          7840;
        startFace       57755;
    }
    procBoundary18to8
    {
        type            processor;
        inGroups        1(processor);
        nFaces          952;
        startFace       65595;
        matchTolerance  0.0001;
        transform       unknown;
        myProcNo        18;
        neighbProcNo    8;
    }
    procBoundary18to10
    {
        type            processor;
        inGroups        1(processor);
        nFaces          2661;
        startFace       66547;
        matchTolerance  0.0001;
        transform       unknown;
        myProcNo        18;
        neighbProcNo    10;
    }
    procBoundary18to12
    {
        type            processor;
        inGroups        1(processor);
        nFaces          22;
        startFace       69208;
        matchTolerance  0.0001;
        transform       unknown;
        myProcNo        18;
        neighbProcNo    12;
    }
    procBoundary18to17
    {
        type            processor;
        inGroups        1(processor);
        nFaces          12;
        startFace       69230;
        matchTolerance  0.0001;
        transform       unknown;
        myProcNo        18;
        neighbProcNo    17;
    }
    procBoundary18to20
    {
        type            processor;
        inGroups        1(processor);
        nFaces          256;
        startFace       69242;
        matchTolerance  0.0001;
        transform       unknown;
        myProcNo        18;
        neighbProcNo    20;
    }
    procBoundary18to26
    {
        type            processor;
        inGroups        1(processor);
        nFaces          2033;
        startFace       69498;
        matchTolerance  0.0001;
        transform       unknown;
        myProcNo        18;
        neighbProcNo    26;
    }
)

// ************************************************************************* //
