/*--------------------------------*- C++ -*----------------------------------*\
| =========                 |                                                 |
| \\      /  F ield         | OpenFOAM: The Open Source CFD Toolbox           |
|  \\    /   O peration     | Version:  2406                                  |
|   \\  /    A nd           | Website:  www.openfoam.com                      |
|    \\/     M anipulation  |                                                 |
\*---------------------------------------------------------------------------*/
FoamFile
{
    version     2.0;
    format      binary;
    arch        "LSB;label=32;scalar=64";
    class       polyBoundaryMesh;
    location    "constant/polyMesh";
    object      boundary;
}
// * * * * * * * * * * * * * * * * * * * * * * * * * * * * * * * * * * * * * //

11
(
    oversetPatch
    {
        type            overset;
        inGroups        1(overset);
        nFaces          51;
        startFace       60213;
    }
    seed
    {
        type            wall;
        inGroups        2(seed wall);
        nFaces          4648;
        startFace       60264;
    }
    procBoundary2to0
    {
        type            processor;
        inGroups        1(processor);
        nFaces          1239;
        startFace       64912;
        matchTolerance  0.0001;
        transform       unknown;
        myProcNo        2;
        neighbProcNo    0;
    }
    procBoundary2to1
    {
        type            processor;
        inGroups        1(processor);
        nFaces          53;
        startFace       66151;
        matchTolerance  0.0001;
        transform       unknown;
        myProcNo        2;
        neighbProcNo    1;
    }
    procBoundary2to4
    {
        type            processor;
        inGroups        1(processor);
        nFaces          1802;
        startFace       66204;
        matchTolerance  0.0001;
        transform       unknown;
        myProcNo        2;
        neighbProcNo    4;
    }
    procBoundary2to8
    {
        type            processor;
        inGroups        1(processor);
        nFaces          3;
        startFace       68006;
        matchTolerance  0.0001;
        transform       unknown;
        myProcNo        2;
        neighbProcNo    8;
    }
    procBoundary2to9
    {
        type            processor;
        inGroups        1(processor);
        nFaces          48;
        startFace       68009;
        matchTolerance  0.0001;
        transform       unknown;
        myProcNo        2;
        neighbProcNo    9;
    }
    procBoundary2to10
    {
        type            processor;
        inGroups        1(processor);
        nFaces          2017;
        startFace       68057;
        matchTolerance  0.0001;
        transform       unknown;
        myProcNo        2;
        neighbProcNo    10;
    }
    procBoundary2to12
    {
        type            processor;
        inGroups        1(processor);
        nFaces          163;
        startFace       70074;
        matchTolerance  0.0001;
        transform       unknown;
        myProcNo        2;
        neighbProcNo    12;
    }
    procBoundary2to17
    {
        type            processor;
        inGroups        1(processor);
        nFaces          23;
        startFace       70237;
        matchTolerance  0.0001;
        transform       unknown;
        myProcNo        2;
        neighbProcNo    17;
    }
    procBoundary2to26
    {
        type            processor;
        inGroups        1(processor);
        nFaces          21;
        startFace       70260;
        matchTolerance  0.0001;
        transform       unknown;
        myProcNo        2;
        neighbProcNo    26;
    }
)

// ************************************************************************* //
