/*--------------------------------*- C++ -*----------------------------------*\
| =========                 |                                                 |
| \\      /  F ield         | OpenFOAM: The Open Source CFD Toolbox           |
|  \\    /   O peration     | Version:  2406                                  |
|   \\  /    A nd           | Website:  www.openfoam.com                      |
|    \\/     M anipulation  |                                                 |
\*---------------------------------------------------------------------------*/
FoamFile
{
    version     2.0;
    format      ascii;
    arch        "LSB;label=32;scalar=64";
    class       polyBoundaryMesh;
    location    "constant/polyMesh";
    object      boundary;
}
// * * * * * * * * * * * * * * * * * * * * * * * * * * * * * * * * * * * * * //

16
(
    wall
    {
        type            patch;
        nFaces          0;
        startFace       83788;
    }
    inlet
    {
        type            wall;
        inGroups        1(wall);
        nFaces          0;
        startFace       83788;
    }
    outlet
    {
        type            wall;
        inGroups        1(wall);
        nFaces          0;
        startFace       83788;
    }
    oversetPatch
    {
        type            overset;
        inGroups        1(overset);
        nFaces          0;
        startFace       83788;
    }
    seed
    {
        type            wall;
        inGroups        2(seed wall);
        nFaces          7171;
        startFace       83788;
    }
    procBoundary12to2
    {
        type            processor;
        inGroups        1(processor);
        nFaces          263;
        startFace       90959;
        matchTolerance  0.0001;
        transform       unknown;
        myProcNo        12;
        neighbProcNo    2;
    }
    procBoundary12to4
    {
        type            processor;
        inGroups        1(processor);
        nFaces          3767;
        startFace       91222;
        matchTolerance  0.0001;
        transform       unknown;
        myProcNo        12;
        neighbProcNo    4;
    }
    procBoundary12to10
    {
        type            processor;
        inGroups        1(processor);
        nFaces          517;
        startFace       94989;
        matchTolerance  0.0001;
        transform       unknown;
        myProcNo        12;
        neighbProcNo    10;
    }
    procBoundary12to13
    {
        type            processor;
        inGroups        1(processor);
        nFaces          48;
        startFace       95506;
        matchTolerance  0.0001;
        transform       unknown;
        myProcNo        12;
        neighbProcNo    13;
    }
    procBoundary12to14
    {
        type            processor;
        inGroups        1(processor);
        nFaces          214;
        startFace       95554;
        matchTolerance  0.0001;
        transform       unknown;
        myProcNo        12;
        neighbProcNo    14;
    }
    procBoundary12to18
    {
        type            processor;
        inGroups        1(processor);
        nFaces          119;
        startFace       95768;
        matchTolerance  0.0001;
        transform       unknown;
        myProcNo        12;
        neighbProcNo    18;
    }
    procBoundary12to19
    {
        type            processor;
        inGroups        1(processor);
        nFaces          10;
        startFace       95887;
        matchTolerance  0.0001;
        transform       unknown;
        myProcNo        12;
        neighbProcNo    19;
    }
    procBoundary12to20
    {
        type            processor;
        inGroups        1(processor);
        nFaces          2195;
        startFace       95897;
        matchTolerance  0.0001;
        transform       unknown;
        myProcNo        12;
        neighbProcNo    20;
    }
    procBoundary12to21
    {
        type            processor;
        inGroups        1(processor);
        nFaces          161;
        startFace       98092;
        matchTolerance  0.0001;
        transform       unknown;
        myProcNo        12;
        neighbProcNo    21;
    }
    procBoundary12to27
    {
        type            processor;
        inGroups        1(processor);
        nFaces          165;
        startFace       98253;
        matchTolerance  0.0001;
        transform       unknown;
        myProcNo        12;
        neighbProcNo    27;
    }
    procBoundary12to29
    {
        type            processor;
        inGroups        1(processor);
        nFaces          15;
        startFace       98418;
        matchTolerance  0.0001;
        transform       unknown;
        myProcNo        12;
        neighbProcNo    29;
    }
)

// ************************************************************************* //
