/*--------------------------------*- C++ -*----------------------------------*\
| =========                 |                                                 |
| \\      /  F ield         | OpenFOAM: The Open Source CFD Toolbox           |
|  \\    /   O peration     | Version:  2406                                  |
|   \\  /    A nd           | Website:  www.openfoam.com                      |
|    \\/     M anipulation  |                                                 |
\*---------------------------------------------------------------------------*/
FoamFile
{
    version     2.0;
    format      ascii;
    arch        "LSB;label=32;scalar=64";
    class       polyBoundaryMesh;
    location    "constant/polyMesh";
    object      boundary;
}
// * * * * * * * * * * * * * * * * * * * * * * * * * * * * * * * * * * * * * //

11
(
    wall
    {
        type            patch;
        nFaces          0;
        startFace       82245;
    }
    inlet
    {
        type            wall;
        inGroups        1(wall);
        nFaces          0;
        startFace       82245;
    }
    outlet
    {
        type            wall;
        inGroups        1(wall);
        nFaces          0;
        startFace       82245;
    }
    oversetPatch
    {
        type            overset;
        inGroups        1(overset);
        nFaces          0;
        startFace       82245;
    }
    seed
    {
        type            wall;
        inGroups        2(seed wall);
        nFaces          9693;
        startFace       82245;
    }
    procBoundary18to8
    {
        type            processor;
        inGroups        1(processor);
        nFaces          831;
        startFace       91938;
        matchTolerance  0.0001;
        transform       unknown;
        myProcNo        18;
        neighbProcNo    8;
    }
    procBoundary18to10
    {
        type            processor;
        inGroups        1(processor);
        nFaces          3553;
        startFace       92769;
        matchTolerance  0.0001;
        transform       unknown;
        myProcNo        18;
        neighbProcNo    10;
    }
    procBoundary18to12
    {
        type            processor;
        inGroups        1(processor);
        nFaces          119;
        startFace       96322;
        matchTolerance  0.0001;
        transform       unknown;
        myProcNo        18;
        neighbProcNo    12;
    }
    procBoundary18to20
    {
        type            processor;
        inGroups        1(processor);
        nFaces          89;
        startFace       96441;
        matchTolerance  0.0001;
        transform       unknown;
        myProcNo        18;
        neighbProcNo    20;
    }
    procBoundary18to26
    {
        type            processor;
        inGroups        1(processor);
        nFaces          2751;
        startFace       96530;
        matchTolerance  0.0001;
        transform       unknown;
        myProcNo        18;
        neighbProcNo    26;
    }
    procBoundary18to27
    {
        type            processor;
        inGroups        1(processor);
        nFaces          5;
        startFace       99281;
        matchTolerance  0.0001;
        transform       unknown;
        myProcNo        18;
        neighbProcNo    27;
    }
)

// ************************************************************************* //
