/*--------------------------------*- C++ -*----------------------------------*\
| =========                 |                                                 |
| \\      /  F ield         | OpenFOAM: The Open Source CFD Toolbox           |
|  \\    /   O peration     | Version:  2406                                  |
|   \\  /    A nd           | Website:  www.openfoam.com                      |
|    \\/     M anipulation  |                                                 |
\*---------------------------------------------------------------------------*/
FoamFile
{
    version     2.0;
    format      ascii;
    arch        "LSB;label=32;scalar=64";
    class       polyBoundaryMesh;
    location    "constant/polyMesh";
    object      boundary;
}
// * * * * * * * * * * * * * * * * * * * * * * * * * * * * * * * * * * * * * //

13
(
    wall
    {
        type            wall;
        inGroups        1(wall);
        nFaces          0;
        startFace       88697;
    }
    inlet
    {
        type            patch;
        nFaces          0;
        startFace       88697;
    }
    outlet
    {
        type            patch;
        nFaces          0;
        startFace       88697;
    }
    oversetPatch
    {
        type            overset;
        inGroups        1(overset);
        nFaces          0;
        startFace       88697;
    }
    seed
    {
        type            wall;
        inGroups        2(seed wall);
        nFaces          9196;
        startFace       88697;
    }
    procBoundary10to1
    {
        type            processor;
        inGroups        1(processor);
        nFaces          4;
        startFace       97893;
        matchTolerance  0.0001;
        transform       unknown;
        myProcNo        10;
        neighbProcNo    1;
    }
    procBoundary10to3
    {
        type            processor;
        inGroups        1(processor);
        nFaces          517;
        startFace       97897;
        matchTolerance  0.0001;
        transform       unknown;
        myProcNo        10;
        neighbProcNo    3;
    }
    procBoundary10to4
    {
        type            processor;
        inGroups        1(processor);
        nFaces          4869;
        startFace       98414;
        matchTolerance  0.0001;
        transform       unknown;
        myProcNo        10;
        neighbProcNo    4;
    }
    procBoundary10to5
    {
        type            processor;
        inGroups        1(processor);
        nFaces          334;
        startFace       103283;
        matchTolerance  0.0001;
        transform       unknown;
        myProcNo        10;
        neighbProcNo    5;
    }
    procBoundary10to7
    {
        type            processor;
        inGroups        1(processor);
        nFaces          724;
        startFace       103617;
        matchTolerance  0.0001;
        transform       unknown;
        myProcNo        10;
        neighbProcNo    7;
    }
    procBoundary10to8
    {
        type            processor;
        inGroups        1(processor);
        nFaces          201;
        startFace       104341;
        matchTolerance  0.0001;
        transform       unknown;
        myProcNo        10;
        neighbProcNo    8;
    }
    procBoundary10to9
    {
        type            processor;
        inGroups        1(processor);
        nFaces          151;
        startFace       104542;
        matchTolerance  0.0001;
        transform       unknown;
        myProcNo        10;
        neighbProcNo    9;
    }
    procBoundary10to11
    {
        type            processor;
        inGroups        1(processor);
        nFaces          348;
        startFace       104693;
        matchTolerance  0.0001;
        transform       unknown;
        myProcNo        10;
        neighbProcNo    11;
    }
)

// ************************************************************************* //
