/*--------------------------------*- C++ -*----------------------------------*\
| =========                 |                                                 |
| \\      /  F ield         | OpenFOAM: The Open Source CFD Toolbox           |
|  \\    /   O peration     | Version:  2406                                  |
|   \\  /    A nd           | Website:  www.openfoam.com                      |
|    \\/     M anipulation  |                                                 |
\*---------------------------------------------------------------------------*/
FoamFile
{
    version     2.0;
    format      ascii;
    arch        "LSB;label=32;scalar=64";
    class       polyBoundaryMesh;
    location    "constant/polyMesh";
    object      boundary;
}
// * * * * * * * * * * * * * * * * * * * * * * * * * * * * * * * * * * * * * //

14
(
    wall
    {
        type            patch;
        nFaces          0;
        startFace       81190;
    }
    inlet
    {
        type            wall;
        inGroups        1(wall);
        nFaces          0;
        startFace       81190;
    }
    outlet
    {
        type            wall;
        inGroups        1(wall);
        nFaces          0;
        startFace       81190;
    }
    oversetPatch
    {
        type            overset;
        inGroups        1(overset);
        nFaces          0;
        startFace       81190;
    }
    seed
    {
        type            wall;
        inGroups        2(seed wall);
        nFaces          10609;
        startFace       81190;
    }
    procBoundary10to2
    {
        type            processor;
        inGroups        1(processor);
        nFaces          3104;
        startFace       91799;
        matchTolerance  0.0001;
        transform       unknown;
        myProcNo        10;
        neighbProcNo    2;
    }
    procBoundary10to4
    {
        type            processor;
        inGroups        1(processor);
        nFaces          2;
        startFace       94903;
        matchTolerance  0.0001;
        transform       unknown;
        myProcNo        10;
        neighbProcNo    4;
    }
    procBoundary10to8
    {
        type            processor;
        inGroups        1(processor);
        nFaces          336;
        startFace       94905;
        matchTolerance  0.0001;
        transform       unknown;
        myProcNo        10;
        neighbProcNo    8;
    }
    procBoundary10to9
    {
        type            processor;
        inGroups        1(processor);
        nFaces          4;
        startFace       95241;
        matchTolerance  0.0001;
        transform       unknown;
        myProcNo        10;
        neighbProcNo    9;
    }
    procBoundary10to12
    {
        type            processor;
        inGroups        1(processor);
        nFaces          517;
        startFace       95245;
        matchTolerance  0.0001;
        transform       unknown;
        myProcNo        10;
        neighbProcNo    12;
    }
    procBoundary10to18
    {
        type            processor;
        inGroups        1(processor);
        nFaces          3553;
        startFace       95762;
        matchTolerance  0.0001;
        transform       unknown;
        myProcNo        10;
        neighbProcNo    18;
    }
    procBoundary10to20
    {
        type            processor;
        inGroups        1(processor);
        nFaces          2;
        startFace       99315;
        matchTolerance  0.0001;
        transform       unknown;
        myProcNo        10;
        neighbProcNo    20;
    }
    procBoundary10to26
    {
        type            processor;
        inGroups        1(processor);
        nFaces          10;
        startFace       99317;
        matchTolerance  0.0001;
        transform       unknown;
        myProcNo        10;
        neighbProcNo    26;
    }
    procBoundary10to27
    {
        type            processor;
        inGroups        1(processor);
        nFaces          12;
        startFace       99327;
        matchTolerance  0.0001;
        transform       unknown;
        myProcNo        10;
        neighbProcNo    27;
    }
)

// ************************************************************************* //
