/*--------------------------------*- C++ -*----------------------------------*\
| =========                 |                                                 |
| \\      /  F ield         | OpenFOAM: The Open Source CFD Toolbox           |
|  \\    /   O peration     | Version:  2406                                  |
|   \\  /    A nd           | Website:  www.openfoam.com                      |
|    \\/     M anipulation  |                                                 |
\*---------------------------------------------------------------------------*/
FoamFile
{
    version     2.0;
    format      ascii;
    arch        "LSB;label=32;scalar=64";
    class       polyBoundaryMesh;
    location    "constant/polyMesh";
    object      boundary;
}
// * * * * * * * * * * * * * * * * * * * * * * * * * * * * * * * * * * * * * //

16
(
    wall
    {
        type            patch;
        nFaces          0;
        startFace       83948;
    }
    inlet
    {
        type            wall;
        inGroups        1(wall);
        nFaces          0;
        startFace       83948;
    }
    outlet
    {
        type            wall;
        inGroups        1(wall);
        nFaces          0;
        startFace       83948;
    }
    oversetPatch
    {
        type            overset;
        inGroups        1(overset);
        nFaces          51;
        startFace       83948;
    }
    seed
    {
        type            wall;
        inGroups        2(seed wall);
        nFaces          7475;
        startFace       83999;
    }
    procBoundary2to0
    {
        type            processor;
        inGroups        1(processor);
        nFaces          565;
        startFace       91474;
        matchTolerance  0.0001;
        transform       unknown;
        myProcNo        2;
        neighbProcNo    0;
    }
    procBoundary2to3
    {
        type            processor;
        inGroups        1(processor);
        nFaces          66;
        startFace       92039;
        matchTolerance  0.0001;
        transform       unknown;
        myProcNo        2;
        neighbProcNo    3;
    }
    procBoundary2to4
    {
        type            processor;
        inGroups        1(processor);
        nFaces          1996;
        startFace       92105;
        matchTolerance  0.0001;
        transform       unknown;
        myProcNo        2;
        neighbProcNo    4;
    }
    procBoundary2to8
    {
        type            processor;
        inGroups        1(processor);
        nFaces          547;
        startFace       94101;
        matchTolerance  0.0001;
        transform       unknown;
        myProcNo        2;
        neighbProcNo    8;
    }
    procBoundary2to9
    {
        type            processor;
        inGroups        1(processor);
        nFaces          18;
        startFace       94648;
        matchTolerance  0.0001;
        transform       unknown;
        myProcNo        2;
        neighbProcNo    9;
    }
    procBoundary2to10
    {
        type            processor;
        inGroups        1(processor);
        nFaces          3104;
        startFace       94666;
        matchTolerance  0.0001;
        transform       unknown;
        myProcNo        2;
        neighbProcNo    10;
    }
    procBoundary2to11
    {
        type            processor;
        inGroups        1(processor);
        nFaces          40;
        startFace       97770;
        matchTolerance  0.0001;
        transform       unknown;
        myProcNo        2;
        neighbProcNo    11;
    }
    procBoundary2to12
    {
        type            processor;
        inGroups        1(processor);
        nFaces          263;
        startFace       97810;
        matchTolerance  0.0001;
        transform       unknown;
        myProcNo        2;
        neighbProcNo    12;
    }
    procBoundary2to19
    {
        type            processor;
        inGroups        1(processor);
        nFaces          21;
        startFace       98073;
        matchTolerance  0.0001;
        transform       unknown;
        myProcNo        2;
        neighbProcNo    19;
    }
    procBoundary2to26
    {
        type            processor;
        inGroups        1(processor);
        nFaces          23;
        startFace       98094;
        matchTolerance  0.0001;
        transform       unknown;
        myProcNo        2;
        neighbProcNo    26;
    }
    procBoundary2to27
    {
        type            processor;
        inGroups        1(processor);
        nFaces          7;
        startFace       98117;
        matchTolerance  0.0001;
        transform       unknown;
        myProcNo        2;
        neighbProcNo    27;
    }
)

// ************************************************************************* //
