/*--------------------------------*- C++ -*----------------------------------*\
| =========                 |                                                 |
| \\      /  F ield         | OpenFOAM: The Open Source CFD Toolbox           |
|  \\    /   O peration     | Version:  2406                                  |
|   \\  /    A nd           | Website:  www.openfoam.com                      |
|    \\/     M anipulation  |                                                 |
\*---------------------------------------------------------------------------*/
FoamFile
{
    version     2.0;
    format      ascii;
    arch        "LSB;label=32;scalar=64";
    class       polyBoundaryMesh;
    location    "constant/polyMesh";
    object      boundary;
}
// * * * * * * * * * * * * * * * * * * * * * * * * * * * * * * * * * * * * * //

11
(
    wall
    {
        type            wall;
        inGroups        1(wall);
        nFaces          450;
        startFace       86705;
    }
    inlet
    {
        type            patch;
        nFaces          225;
        startFace       87155;
    }
    outlet
    {
        type            patch;
        nFaces          0;
        startFace       87380;
    }
    oversetPatch
    {
        type            overset;
        inGroups        1(overset);
        nFaces          675;
        startFace       87380;
    }
    seed
    {
        type            wall;
        inGroups        2(seed wall);
        nFaces          8598;
        startFace       88055;
    }
    procBoundary2to0
    {
        type            processor;
        inGroups        1(processor);
        nFaces          445;
        startFace       96653;
        matchTolerance  0.0001;
        transform       unknown;
        myProcNo        2;
        neighbProcNo    0;
    }
    procBoundary2to1
    {
        type            processor;
        inGroups        1(processor);
        nFaces          336;
        startFace       97098;
        matchTolerance  0.0001;
        transform       unknown;
        myProcNo        2;
        neighbProcNo    1;
    }
    procBoundary2to4
    {
        type            processor;
        inGroups        1(processor);
        nFaces          151;
        startFace       97434;
        matchTolerance  0.0001;
        transform       unknown;
        myProcNo        2;
        neighbProcNo    4;
    }
    procBoundary2to5
    {
        type            processor;
        inGroups        1(processor);
        nFaces          883;
        startFace       97585;
        matchTolerance  0.0001;
        transform       unknown;
        myProcNo        2;
        neighbProcNo    5;
    }
    procBoundary2to7
    {
        type            processor;
        inGroups        1(processor);
        nFaces          36;
        startFace       98468;
        matchTolerance  0.0001;
        transform       unknown;
        myProcNo        2;
        neighbProcNo    7;
    }
    procBoundary2to8
    {
        type            processor;
        inGroups        1(processor);
        nFaces          2946;
        startFace       98504;
        matchTolerance  0.0001;
        transform       unknown;
        myProcNo        2;
        neighbProcNo    8;
    }
)

// ************************************************************************* //
