/*--------------------------------*- C++ -*----------------------------------*\
| =========                 |                                                 |
| \\      /  F ield         | OpenFOAM: The Open Source CFD Toolbox           |
|  \\    /   O peration     | Version:  2406                                  |
|   \\  /    A nd           | Website:  www.openfoam.com                      |
|    \\/     M anipulation  |                                                 |
\*---------------------------------------------------------------------------*/
FoamFile
{
    version     2.0;
    format      binary;
    arch        "LSB;label=32;scalar=64";
    class       polyBoundaryMesh;
    location    "constant/polyMesh";
    object      boundary;
}
// * * * * * * * * * * * * * * * * * * * * * * * * * * * * * * * * * * * * * //

12
(
    oversetPatch
    {
        type            overset;
        inGroups        1(overset);
        nFaces          79;
        startFace       59479;
    }
    seed
    {
        type            wall;
        inGroups        2(seed wall);
        nFaces          4190;
        startFace       59558;
    }
    procBoundary27to11
    {
        type            processor;
        inGroups        1(processor);
        nFaces          34;
        startFace       63748;
        matchTolerance  0.0001;
        transform       unknown;
        myProcNo        27;
        neighbProcNo    11;
    }
    procBoundary27to12
    {
        type            processor;
        inGroups        1(processor);
        nFaces          57;
        startFace       63782;
        matchTolerance  0.0001;
        transform       unknown;
        myProcNo        27;
        neighbProcNo    12;
    }
    procBoundary27to13
    {
        type            processor;
        inGroups        1(processor);
        nFaces          10;
        startFace       63839;
        matchTolerance  0.0001;
        transform       unknown;
        myProcNo        27;
        neighbProcNo    13;
    }
    procBoundary27to17
    {
        type            processor;
        inGroups        1(processor);
        nFaces          951;
        startFace       63849;
        matchTolerance  0.0001;
        transform       unknown;
        myProcNo        27;
        neighbProcNo    17;
    }
    procBoundary27to19
    {
        type            processor;
        inGroups        1(processor);
        nFaces          2394;
        startFace       64800;
        matchTolerance  0.0001;
        transform       unknown;
        myProcNo        27;
        neighbProcNo    19;
    }
    procBoundary27to20
    {
        type            processor;
        inGroups        1(processor);
        nFaces          88;
        startFace       67194;
        matchTolerance  0.0001;
        transform       unknown;
        myProcNo        27;
        neighbProcNo    20;
    }
    procBoundary27to21
    {
        type            processor;
        inGroups        1(processor);
        nFaces          633;
        startFace       67282;
        matchTolerance  0.0001;
        transform       unknown;
        myProcNo        27;
        neighbProcNo    21;
    }
    procBoundary27to25
    {
        type            processor;
        inGroups        1(processor);
        nFaces          819;
        startFace       67915;
        matchTolerance  0.0001;
        transform       unknown;
        myProcNo        27;
        neighbProcNo    25;
    }
    procBoundary27to28
    {
        type            processor;
        inGroups        1(processor);
        nFaces          68;
        startFace       68734;
        matchTolerance  0.0001;
        transform       unknown;
        myProcNo        27;
        neighbProcNo    28;
    }
    procBoundary27to29
    {
        type            processor;
        inGroups        1(processor);
        nFaces          1832;
        startFace       68802;
        matchTolerance  0.0001;
        transform       unknown;
        myProcNo        27;
        neighbProcNo    29;
    }
)

// ************************************************************************* //
