/*--------------------------------*- C++ -*----------------------------------*\
| =========                 |                                                 |
| \\      /  F ield         | OpenFOAM: The Open Source CFD Toolbox           |
|  \\    /   O peration     | Version:  2406                                  |
|   \\  /    A nd           | Website:  www.openfoam.com                      |
|    \\/     M anipulation  |                                                 |
\*---------------------------------------------------------------------------*/
FoamFile
{
    version     2.0;
    format      ascii;
    arch        "LSB;label=32;scalar=64";
    class       polyBoundaryMesh;
    location    "constant/polyMesh";
    object      boundary;
}
// * * * * * * * * * * * * * * * * * * * * * * * * * * * * * * * * * * * * * //

10
(
    wall
    {
        type            patch;
        nFaces          2207;
        startFace       80629;
    }
    inlet
    {
        type            wall;
        inGroups        1(wall);
        nFaces          0;
        startFace       82836;
    }
    outlet
    {
        type            wall;
        inGroups        1(wall);
        nFaces          625;
        startFace       82836;
    }
    oversetPatch
    {
        type            overset;
        inGroups        1(overset);
        nFaces          0;
        startFace       83461;
    }
    seed
    {
        type            wall;
        inGroups        2(seed wall);
        nFaces          0;
        startFace       83461;
    }
    procBoundary30to22
    {
        type            processor;
        inGroups        1(processor);
        nFaces          672;
        startFace       83461;
        matchTolerance  0.0001;
        transform       unknown;
        myProcNo        30;
        neighbProcNo    22;
    }
    procBoundary30to23
    {
        type            processor;
        inGroups        1(processor);
        nFaces          13;
        startFace       84133;
        matchTolerance  0.0001;
        transform       unknown;
        myProcNo        30;
        neighbProcNo    23;
    }
    procBoundary30to24
    {
        type            processor;
        inGroups        1(processor);
        nFaces          500;
        startFace       84146;
        matchTolerance  0.0001;
        transform       unknown;
        myProcNo        30;
        neighbProcNo    24;
    }
    procBoundary30to26
    {
        type            processor;
        inGroups        1(processor);
        nFaces          625;
        startFace       84646;
        matchTolerance  0.0001;
        transform       unknown;
        myProcNo        30;
        neighbProcNo    26;
    }
    procBoundary30to31
    {
        type            processor;
        inGroups        1(processor);
        nFaces          1107;
        startFace       85271;
        matchTolerance  0.0001;
        transform       unknown;
        myProcNo        30;
        neighbProcNo    31;
    }
)

// ************************************************************************* //
