/*--------------------------------*- C++ -*----------------------------------*\
| =========                 |                                                 |
| \\      /  F ield         | OpenFOAM: The Open Source CFD Toolbox           |
|  \\    /   O peration     | Version:  2406                                  |
|   \\  /    A nd           | Website:  www.openfoam.com                      |
|    \\/     M anipulation  |                                                 |
\*---------------------------------------------------------------------------*/
FoamFile
{
    version     2.0;
    format      ascii;
    arch        "LSB;label=32;scalar=64";
    class       polyBoundaryMesh;
    location    "constant/polyMesh";
    object      boundary;
}
// * * * * * * * * * * * * * * * * * * * * * * * * * * * * * * * * * * * * * //

17
(
    wall
    {
        type            patch;
        nFaces          32;
        startFace       83209;
    }
    inlet
    {
        type            wall;
        inGroups        1(wall);
        nFaces          0;
        startFace       83241;
    }
    outlet
    {
        type            wall;
        inGroups        1(wall);
        nFaces          25;
        startFace       83241;
    }
    oversetPatch
    {
        type            overset;
        inGroups        1(overset);
        nFaces          77;
        startFace       83266;
    }
    seed
    {
        type            wall;
        inGroups        2(seed wall);
        nFaces          5978;
        startFace       83343;
    }
    procBoundary26to2
    {
        type            processor;
        inGroups        1(processor);
        nFaces          23;
        startFace       89321;
        matchTolerance  0.0001;
        transform       unknown;
        myProcNo        26;
        neighbProcNo    2;
    }
    procBoundary26to8
    {
        type            processor;
        inGroups        1(processor);
        nFaces          1664;
        startFace       89344;
        matchTolerance  0.0001;
        transform       unknown;
        myProcNo        26;
        neighbProcNo    8;
    }
    procBoundary26to9
    {
        type            processor;
        inGroups        1(processor);
        nFaces          4;
        startFace       91008;
        matchTolerance  0.0001;
        transform       unknown;
        myProcNo        26;
        neighbProcNo    9;
    }
    procBoundary26to10
    {
        type            processor;
        inGroups        1(processor);
        nFaces          10;
        startFace       91012;
        matchTolerance  0.0001;
        transform       unknown;
        myProcNo        26;
        neighbProcNo    10;
    }
    procBoundary26to16
    {
        type            processor;
        inGroups        1(processor);
        nFaces          456;
        startFace       91022;
        matchTolerance  0.0001;
        transform       unknown;
        myProcNo        26;
        neighbProcNo    16;
    }
    procBoundary26to18
    {
        type            processor;
        inGroups        1(processor);
        nFaces          2751;
        startFace       91478;
        matchTolerance  0.0001;
        transform       unknown;
        myProcNo        26;
        neighbProcNo    18;
    }
    procBoundary26to20
    {
        type            processor;
        inGroups        1(processor);
        nFaces          290;
        startFace       94229;
        matchTolerance  0.0001;
        transform       unknown;
        myProcNo        26;
        neighbProcNo    20;
    }
    procBoundary26to24
    {
        type            processor;
        inGroups        1(processor);
        nFaces          664;
        startFace       94519;
        matchTolerance  0.0001;
        transform       unknown;
        myProcNo        26;
        neighbProcNo    24;
    }
    procBoundary26to25
    {
        type            processor;
        inGroups        1(processor);
        nFaces          18;
        startFace       95183;
        matchTolerance  0.0001;
        transform       unknown;
        myProcNo        26;
        neighbProcNo    25;
    }
    procBoundary26to27
    {
        type            processor;
        inGroups        1(processor);
        nFaces          62;
        startFace       95201;
        matchTolerance  0.0001;
        transform       unknown;
        myProcNo        26;
        neighbProcNo    27;
    }
    procBoundary26to28
    {
        type            processor;
        inGroups        1(processor);
        nFaces          1740;
        startFace       95263;
        matchTolerance  0.0001;
        transform       unknown;
        myProcNo        26;
        neighbProcNo    28;
    }
    procBoundary26to30
    {
        type            processor;
        inGroups        1(processor);
        nFaces          625;
        startFace       97003;
        matchTolerance  0.0001;
        transform       unknown;
        myProcNo        26;
        neighbProcNo    30;
    }
)

// ************************************************************************* //
