/*--------------------------------*- C++ -*----------------------------------*\
| =========                 |                                                 |
| \\      /  F ield         | OpenFOAM: The Open Source CFD Toolbox           |
|  \\    /   O peration     | Version:  2406                                  |
|   \\  /    A nd           | Website:  www.openfoam.com                      |
|    \\/     M anipulation  |                                                 |
\*---------------------------------------------------------------------------*/
FoamFile
{
    version     2.0;
    format      binary;
    arch        "LSB;label=32;scalar=64";
    class       polyBoundaryMesh;
    location    "constant/polyMesh";
    object      boundary;
}
// * * * * * * * * * * * * * * * * * * * * * * * * * * * * * * * * * * * * * //

5
(
    oversetPatch
    {
        type            overset;
        inGroups        1(overset);
        nFaces          1924;
        startFace       57982;
    }
    seed
    {
        type            wall;
        inGroups        2(seed wall);
        nFaces          381;
        startFace       59906;
    }
    procBoundary7to5
    {
        type            processor;
        inGroups        1(processor);
        nFaces          1158;
        startFace       60287;
        matchTolerance  0.0001;
        transform       unknown;
        myProcNo        7;
        neighbProcNo    5;
    }
    procBoundary7to6
    {
        type            processor;
        inGroups        1(processor);
        nFaces          660;
        startFace       61445;
        matchTolerance  0.0001;
        transform       unknown;
        myProcNo        7;
        neighbProcNo    6;
    }
    procBoundary7to15
    {
        type            processor;
        inGroups        1(processor);
        nFaces          1807;
        startFace       62105;
        matchTolerance  0.0001;
        transform       unknown;
        myProcNo        7;
        neighbProcNo    15;
    }
)

// ************************************************************************* //
