/*--------------------------------*- C++ -*----------------------------------*\
| =========                 |                                                 |
| \\      /  F ield         | OpenFOAM: The Open Source CFD Toolbox           |
|  \\    /   O peration     | Version:  2406                                  |
|   \\  /    A nd           | Website:  www.openfoam.com                      |
|    \\/     M anipulation  |                                                 |
\*---------------------------------------------------------------------------*/
FoamFile
{
    version     2.0;
    format      binary;
    arch        "LSB;label=32;scalar=64";
    class       pointScalarField;
    location    "0";
    object      pointLevel;
}
// * * * * * * * * * * * * * * * * * * * * * * * * * * * * * * * * * * * * * //

dimensions      [0 0 0 0 0 0 0];

internalField   uniform 0;

boundaryField
{
    oversetPatch
    {
        type            calculated;
    }
    seed
    {
        type            calculated;
    }
    procBoundary16to8
    {
        type            processor;
    }
    procBoundary16to9
    {
        type            processor;
    }
    procBoundary16to17
    {
        type            processor;
    }
    procBoundary16to18
    {
        type            processor;
    }
}


// ************************************************************************* //
