/*--------------------------------*- C++ -*----------------------------------*\
| =========                 |                                                 |
| \\      /  F ield         | OpenFOAM: The Open Source CFD Toolbox           |
|  \\    /   O peration     | Version:  2406                                  |
|   \\  /    A nd           | Website:  www.openfoam.com                      |
|    \\/     M anipulation  |                                                 |
\*---------------------------------------------------------------------------*/
FoamFile
{
    version     2.0;
    format      ascii;
    arch        "LSB;label=32;scalar=64";
    class       polyBoundaryMesh;
    location    "constant/polyMesh";
    object      boundary;
}
// * * * * * * * * * * * * * * * * * * * * * * * * * * * * * * * * * * * * * //

9
(
    wall
    {
        type            wall;
        inGroups        1(wall);
        nFaces          1350;
        startFace       86305;
    }
    inlet
    {
        type            patch;
        nFaces          0;
        startFace       87655;
    }
    outlet
    {
        type            patch;
        nFaces          225;
        startFace       87655;
    }
    oversetPatch
    {
        type            overset;
        inGroups        1(overset);
        nFaces          1575;
        startFace       87880;
    }
    seed
    {
        type            wall;
        inGroups        2(seed wall);
        nFaces          2550;
        startFace       89455;
    }
    procBoundary11to5
    {
        type            processor;
        inGroups        1(processor);
        nFaces          2089;
        startFace       92005;
        matchTolerance  0.0001;
        transform       unknown;
        myProcNo        11;
        neighbProcNo    5;
    }
    procBoundary11to8
    {
        type            processor;
        inGroups        1(processor);
        nFaces          1578;
        startFace       94094;
        matchTolerance  0.0001;
        transform       unknown;
        myProcNo        11;
        neighbProcNo    8;
    }
    procBoundary11to9
    {
        type            processor;
        inGroups        1(processor);
        nFaces          1348;
        startFace       95672;
        matchTolerance  0.0001;
        transform       unknown;
        myProcNo        11;
        neighbProcNo    9;
    }
    procBoundary11to10
    {
        type            processor;
        inGroups        1(processor);
        nFaces          348;
        startFace       97020;
        matchTolerance  0.0001;
        transform       unknown;
        myProcNo        11;
        neighbProcNo    10;
    }
)

// ************************************************************************* //
