/*--------------------------------*- C++ -*----------------------------------*\
| =========                 |                                                 |
| \\      /  F ield         | OpenFOAM: The Open Source CFD Toolbox           |
|  \\    /   O peration     | Version:  v2406                                 |
|   \\  /    A nd           | Website:  www.openfoam.com                      |
|    \\/     M anipulation  |                                                 |
\*---------------------------------------------------------------------------*/
FoamFile
{
    version     2.0;
    format      ascii;
    class       dictionary;
    object      dynamicMeshDict;
}
// * * * * * * * * * * * * * * * * * * * * * * * * * * * * * * * * * * * * * //

motionSolverLibs ( "libsixDoFRigidBodyMotion.so" );

dynamicFvMesh       dynamicOversetFvMesh;

solver              sixDoFRigidBodyMotion;

diffusivity         quadratic inverseDistance 1 ( seed );

sixDoFRigidBodyMotionCoeffs
{
    patches             ( seed );
    innerDistance       2; 
    outerDistance       16;
    centreOfMass        (0 0 0);
    mass                0.007578;
    momentOfInertia     (2.1e-5 2.1e-5 2.1e-5);
    velocity            (0 0 0);
    rho                 rhoInf;
    rhoInf              1.225;
    accelerationRelaxation 1;
    accelerationDamping 1;
    report              on; 
    reportToFile        on;
    g                   (0 0 -9.81); 
    solver
    {
        type            Newmark;
    }


    

}

// ************************************************************************* //
