/*--------------------------------*- C++ -*----------------------------------*\
| =========                 |                                                 |
| \\      /  F ield         | OpenFOAM: The Open Source CFD Toolbox           |
|  \\    /   O peration     | Version:  2406                                  |
|   \\  /    A nd           | Website:  www.openfoam.com                      |
|    \\/     M anipulation  |                                                 |
\*---------------------------------------------------------------------------*/
FoamFile
{
    version     2.0;
    format      binary;
    arch        "LSB;label=32;scalar=64";
    class       polyBoundaryMesh;
    location    "constant/polyMesh";
    object      boundary;
}
// * * * * * * * * * * * * * * * * * * * * * * * * * * * * * * * * * * * * * //

13
(
    oversetPatch
    {
        type            overset;
        inGroups        1(overset);
        nFaces          79;
        startFace       59709;
    }
    seed
    {
        type            wall;
        inGroups        2(seed wall);
        nFaces          3583;
        startFace       59788;
    }
    procBoundary29to5
    {
        type            processor;
        inGroups        1(processor);
        nFaces          21;
        startFace       63371;
        matchTolerance  0.0001;
        transform       unknown;
        myProcNo        29;
        neighbProcNo    5;
    }
    procBoundary29to13
    {
        type            processor;
        inGroups        1(processor);
        nFaces          5;
        startFace       63392;
        matchTolerance  0.0001;
        transform       unknown;
        myProcNo        29;
        neighbProcNo    13;
    }
    procBoundary29to14
    {
        type            processor;
        inGroups        1(processor);
        nFaces          31;
        startFace       63397;
        matchTolerance  0.0001;
        transform       unknown;
        myProcNo        29;
        neighbProcNo    14;
    }
    procBoundary29to20
    {
        type            processor;
        inGroups        1(processor);
        nFaces          23;
        startFace       63428;
        matchTolerance  0.0001;
        transform       unknown;
        myProcNo        29;
        neighbProcNo    20;
    }
    procBoundary29to21
    {
        type            processor;
        inGroups        1(processor);
        nFaces          3422;
        startFace       63451;
        matchTolerance  0.0001;
        transform       unknown;
        myProcNo        29;
        neighbProcNo    21;
    }
    procBoundary29to22
    {
        type            processor;
        inGroups        1(processor);
        nFaces          19;
        startFace       66873;
        matchTolerance  0.0001;
        transform       unknown;
        myProcNo        29;
        neighbProcNo    22;
    }
    procBoundary29to23
    {
        type            processor;
        inGroups        1(processor);
        nFaces          1182;
        startFace       66892;
        matchTolerance  0.0001;
        transform       unknown;
        myProcNo        29;
        neighbProcNo    23;
    }
    procBoundary29to27
    {
        type            processor;
        inGroups        1(processor);
        nFaces          1832;
        startFace       68074;
        matchTolerance  0.0001;
        transform       unknown;
        myProcNo        29;
        neighbProcNo    27;
    }
    procBoundary29to28
    {
        type            processor;
        inGroups        1(processor);
        nFaces          30;
        startFace       69906;
        matchTolerance  0.0001;
        transform       unknown;
        myProcNo        29;
        neighbProcNo    28;
    }
    procBoundary29to30
    {
        type            processor;
        inGroups        1(processor);
        nFaces          26;
        startFace       69936;
        matchTolerance  0.0001;
        transform       unknown;
        myProcNo        29;
        neighbProcNo    30;
    }
    procBoundary29to31
    {
        type            processor;
        inGroups        1(processor);
        nFaces          832;
        startFace       69962;
        matchTolerance  0.0001;
        transform       unknown;
        myProcNo        29;
        neighbProcNo    31;
    }
)

// ************************************************************************* //
