/*--------------------------------*- C++ -*----------------------------------*\
| =========                 |                                                 |
| \\      /  F ield         | OpenFOAM: The Open Source CFD Toolbox           |
|  \\    /   O peration     | Version:  2406                                  |
|   \\  /    A nd           | Website:  www.openfoam.com                      |
|    \\/     M anipulation  |                                                 |
\*---------------------------------------------------------------------------*/
FoamFile
{
    version     2.0;
    format      binary;
    arch        "LSB;label=32;scalar=64";
    class       polyBoundaryMesh;
    location    "constant/polyMesh";
    object      boundary;
}
// * * * * * * * * * * * * * * * * * * * * * * * * * * * * * * * * * * * * * //

8
(
    oversetPatch
    {
        type            overset;
        inGroups        1(overset);
        nFaces          53;
        startFace       79924;
    }
    seed
    {
        type            wall;
        inGroups        2(seed wall);
        nFaces          8959;
        startFace       79977;
    }
    procBoundary3to1
    {
        type            processor;
        inGroups        1(processor);
        nFaces          2042;
        startFace       88936;
        matchTolerance  0.0001;
        transform       unknown;
        myProcNo        3;
        neighbProcNo    1;
    }
    procBoundary3to4
    {
        type            processor;
        inGroups        1(processor);
        nFaces          317;
        startFace       90978;
        matchTolerance  0.0001;
        transform       unknown;
        myProcNo        3;
        neighbProcNo    4;
    }
    procBoundary3to5
    {
        type            processor;
        inGroups        1(processor);
        nFaces          1271;
        startFace       91295;
        matchTolerance  0.0001;
        transform       unknown;
        myProcNo        3;
        neighbProcNo    5;
    }
    procBoundary3to9
    {
        type            processor;
        inGroups        1(processor);
        nFaces          304;
        startFace       92566;
        matchTolerance  0.0001;
        transform       unknown;
        myProcNo        3;
        neighbProcNo    9;
    }
    procBoundary3to11
    {
        type            processor;
        inGroups        1(processor);
        nFaces          1597;
        startFace       92870;
        matchTolerance  0.0001;
        transform       unknown;
        myProcNo        3;
        neighbProcNo    11;
    }
    procBoundary3to19
    {
        type            processor;
        inGroups        1(processor);
        nFaces          31;
        startFace       94467;
        matchTolerance  0.0001;
        transform       unknown;
        myProcNo        3;
        neighbProcNo    19;
    }
)

// ************************************************************************* //
