/*--------------------------------*- C++ -*----------------------------------*\
| =========                 |                                                 |
| \\      /  F ield         | OpenFOAM: The Open Source CFD Toolbox           |
|  \\    /   O peration     | Version:  2406                                  |
|   \\  /    A nd           | Website:  www.openfoam.com                      |
|    \\/     M anipulation  |                                                 |
\*---------------------------------------------------------------------------*/
FoamFile
{
    version     2.0;
    format      ascii;
    arch        "LSB;label=32;scalar=64";
    class       polyBoundaryMesh;
    location    "constant/polyMesh";
    object      boundary;
}
// * * * * * * * * * * * * * * * * * * * * * * * * * * * * * * * * * * * * * //

13
(
    wall
    {
        type            wall;
        inGroups        1(wall);
        nFaces          450;
        startFace       86338;
    }
    inlet
    {
        type            patch;
        nFaces          225;
        startFace       86788;
    }
    outlet
    {
        type            patch;
        nFaces          0;
        startFace       87013;
    }
    oversetPatch
    {
        type            overset;
        inGroups        1(overset);
        nFaces          675;
        startFace       87013;
    }
    seed
    {
        type            wall;
        inGroups        2(seed wall);
        nFaces          8111;
        startFace       87688;
    }
    procBoundary3to0
    {
        type            processor;
        inGroups        1(processor);
        nFaces          1003;
        startFace       95799;
        matchTolerance  0.0001;
        transform       unknown;
        myProcNo        3;
        neighbProcNo    0;
    }
    procBoundary3to1
    {
        type            processor;
        inGroups        1(processor);
        nFaces          34;
        startFace       96802;
        matchTolerance  0.0001;
        transform       unknown;
        myProcNo        3;
        neighbProcNo    1;
    }
    procBoundary3to4
    {
        type            processor;
        inGroups        1(processor);
        nFaces          118;
        startFace       96836;
        matchTolerance  0.0001;
        transform       unknown;
        myProcNo        3;
        neighbProcNo    4;
    }
    procBoundary3to5
    {
        type            processor;
        inGroups        1(processor);
        nFaces          445;
        startFace       96954;
        matchTolerance  0.0001;
        transform       unknown;
        myProcNo        3;
        neighbProcNo    5;
    }
    procBoundary3to6
    {
        type            processor;
        inGroups        1(processor);
        nFaces          268;
        startFace       97399;
        matchTolerance  0.0001;
        transform       unknown;
        myProcNo        3;
        neighbProcNo    6;
    }
    procBoundary3to7
    {
        type            processor;
        inGroups        1(processor);
        nFaces          113;
        startFace       97667;
        matchTolerance  0.0001;
        transform       unknown;
        myProcNo        3;
        neighbProcNo    7;
    }
    procBoundary3to9
    {
        type            processor;
        inGroups        1(processor);
        nFaces          4219;
        startFace       97780;
        matchTolerance  0.0001;
        transform       unknown;
        myProcNo        3;
        neighbProcNo    9;
    }
    procBoundary3to10
    {
        type            processor;
        inGroups        1(processor);
        nFaces          517;
        startFace       101999;
        matchTolerance  0.0001;
        transform       unknown;
        myProcNo        3;
        neighbProcNo    10;
    }
)

// ************************************************************************* //
