/*--------------------------------*- C++ -*----------------------------------*\
| =========                 |                                                 |
| \\      /  F ield         | OpenFOAM: The Open Source CFD Toolbox           |
|  \\    /   O peration     | Version:  2406                                  |
|   \\  /    A nd           | Website:  www.openfoam.com                      |
|    \\/     M anipulation  |                                                 |
\*---------------------------------------------------------------------------*/
FoamFile
{
    version     2.0;
    format      ascii;
    arch        "LSB;label=32;scalar=64";
    class       polyBoundaryMesh;
    location    "constant/polyMesh";
    object      boundary;
}
// * * * * * * * * * * * * * * * * * * * * * * * * * * * * * * * * * * * * * //

13
(
    wall
    {
        type            patch;
        nFaces          0;
        startFace       85519;
    }
    inlet
    {
        type            wall;
        inGroups        1(wall);
        nFaces          0;
        startFace       85519;
    }
    outlet
    {
        type            wall;
        inGroups        1(wall);
        nFaces          0;
        startFace       85519;
    }
    oversetPatch
    {
        type            overset;
        inGroups        1(overset);
        nFaces          104;
        startFace       85519;
    }
    seed
    {
        type            wall;
        inGroups        2(seed wall);
        nFaces          6632;
        startFace       85623;
    }
    procBoundary3to1
    {
        type            processor;
        inGroups        1(processor);
        nFaces          618;
        startFace       92255;
        matchTolerance  0.0001;
        transform       unknown;
        myProcNo        3;
        neighbProcNo    1;
    }
    procBoundary3to2
    {
        type            processor;
        inGroups        1(processor);
        nFaces          66;
        startFace       92873;
        matchTolerance  0.0001;
        transform       unknown;
        myProcNo        3;
        neighbProcNo    2;
    }
    procBoundary3to4
    {
        type            processor;
        inGroups        1(processor);
        nFaces          204;
        startFace       92939;
        matchTolerance  0.0001;
        transform       unknown;
        myProcNo        3;
        neighbProcNo    4;
    }
    procBoundary3to5
    {
        type            processor;
        inGroups        1(processor);
        nFaces          1208;
        startFace       93143;
        matchTolerance  0.0001;
        transform       unknown;
        myProcNo        3;
        neighbProcNo    5;
    }
    procBoundary3to9
    {
        type            processor;
        inGroups        1(processor);
        nFaces          250;
        startFace       94351;
        matchTolerance  0.0001;
        transform       unknown;
        myProcNo        3;
        neighbProcNo    9;
    }
    procBoundary3to11
    {
        type            processor;
        inGroups        1(processor);
        nFaces          2319;
        startFace       94601;
        matchTolerance  0.0001;
        transform       unknown;
        myProcNo        3;
        neighbProcNo    11;
    }
    procBoundary3to19
    {
        type            processor;
        inGroups        1(processor);
        nFaces          27;
        startFace       96920;
        matchTolerance  0.0001;
        transform       unknown;
        myProcNo        3;
        neighbProcNo    19;
    }
    procBoundary3to27
    {
        type            processor;
        inGroups        1(processor);
        nFaces          11;
        startFace       96947;
        matchTolerance  0.0001;
        transform       unknown;
        myProcNo        3;
        neighbProcNo    27;
    }
)

// ************************************************************************* //
