/*--------------------------------*- C++ -*----------------------------------*\
| =========                 |                                                 |
| \\      /  F ield         | OpenFOAM: The Open Source CFD Toolbox           |
|  \\    /   O peration     | Version:  2406                                  |
|   \\  /    A nd           | Website:  www.openfoam.com                      |
|    \\/     M anipulation  |                                                 |
\*---------------------------------------------------------------------------*/
FoamFile
{
    version     2.0;
    format      ascii;
    arch        "LSB;label=32;scalar=64";
    class       polyBoundaryMesh;
    location    "constant/polyMesh";
    object      boundary;
}
// * * * * * * * * * * * * * * * * * * * * * * * * * * * * * * * * * * * * * //

11
(
    wall
    {
        type            patch;
        nFaces          2250;
        startFace       80591;
    }
    inlet
    {
        type            wall;
        inGroups        1(wall);
        nFaces          0;
        startFace       82841;
    }
    outlet
    {
        type            wall;
        inGroups        1(wall);
        nFaces          600;
        startFace       82841;
    }
    oversetPatch
    {
        type            overset;
        inGroups        1(overset);
        nFaces          0;
        startFace       83441;
    }
    seed
    {
        type            wall;
        inGroups        2(seed wall);
        nFaces          0;
        startFace       83441;
    }
    procBoundary24to16
    {
        type            processor;
        inGroups        1(processor);
        nFaces          678;
        startFace       83441;
        matchTolerance  0.0001;
        transform       unknown;
        myProcNo        24;
        neighbProcNo    16;
    }
    procBoundary24to17
    {
        type            processor;
        inGroups        1(processor);
        nFaces          40;
        startFace       84119;
        matchTolerance  0.0001;
        transform       unknown;
        myProcNo        24;
        neighbProcNo    17;
    }
    procBoundary24to25
    {
        type            processor;
        inGroups        1(processor);
        nFaces          1089;
        startFace       84159;
        matchTolerance  0.0001;
        transform       unknown;
        myProcNo        24;
        neighbProcNo    25;
    }
    procBoundary24to26
    {
        type            processor;
        inGroups        1(processor);
        nFaces          664;
        startFace       85248;
        matchTolerance  0.0001;
        transform       unknown;
        myProcNo        24;
        neighbProcNo    26;
    }
    procBoundary24to28
    {
        type            processor;
        inGroups        1(processor);
        nFaces          4;
        startFace       85912;
        matchTolerance  0.0001;
        transform       unknown;
        myProcNo        24;
        neighbProcNo    28;
    }
    procBoundary24to30
    {
        type            processor;
        inGroups        1(processor);
        nFaces          500;
        startFace       85916;
        matchTolerance  0.0001;
        transform       unknown;
        myProcNo        24;
        neighbProcNo    30;
    }
)

// ************************************************************************* //
