/*--------------------------------*- C++ -*----------------------------------*\
| =========                 |                                                 |
| \\      /  F ield         | OpenFOAM: The Open Source CFD Toolbox           |
|  \\    /   O peration     | Version:  v2406                                 |
|   \\  /    A nd           | Website:  www.openfoam.com                      |
|    \\/     M anipulation  |                                                 |
\*---------------------------------------------------------------------------*/
FoamFile
{
    version     2.0;
    format      ascii;
    class       dictionary;
    object      blockMeshDict;
}
// * * * * * * * * * * * * * * * * * * * * * * * * * * * * * * * * * * * * * //

scale   1e-2;

vertices
(
 // large domain
    (-0.5 -0.5 -1)
    (0.5 -0.5 -1)
    (0.5  0.5 -1)
    (-0.5  0.5 -1)
    (-0.5 -0.5 4)
    (0.5 -0.5 4)
    (0.5 0.5 4)
    (-0.5  0.5 4)

 // narrow strip z-direction
    (-0.15 -0.15 -1)
    (0.15 -0.15 -1)
    (0.15  0.15 -1)
    (-0.15  0.15 -1)

    (-0.15 -0.15 4)
    (0.15 -0.15 4)
    (0.15  0.15 4)
    (-0.15  0.15 4)

);

blocks
(
// large domain block
    hex (0 1 2 3 4 5 6 7) (45 45 50) simpleGrading (1 1 1)
 // fine block in the narrow strip 
    hex (8 9 10 11 12 13 14 15) (90 90 150) simpleGrading (1 1 1)
);

edges
(
);

boundary
(
    oversetPatch
    {
        type overset;
        faces
        (
            (2 6 5 1)
	        (0 4 7 3)
	        (3 7 6 2)
            (1 5 4 0)
            (11 15 14 10)  // Left face of narrow strip block
            (8 12 13 9)    // Right face of narrow strip block
            (9 13 14 10)   // Top face of narrow strip block
            (8 12 15 11)   // Bottom face of narrow strip block
            (12 13 14 15)  // Front face of narrow strip block
            (8 9 10 11)    // Back face of narrow strip block
            (4 5 6 7)
	        (0 3 2 1)
        );
    }
   
);

mergePatchPairs
(
);

