/*--------------------------------*- C++ -*----------------------------------*\
| =========                 |                                                 |
| \\      /  F ield         | OpenFOAM: The Open Source CFD Toolbox           |
|  \\    /   O peration     | Version:  2406                                  |
|   \\  /    A nd           | Website:  www.openfoam.com                      |
|    \\/     M anipulation  |                                                 |
\*---------------------------------------------------------------------------*/
FoamFile
{
    version     2.0;
    format      binary;
    arch        "LSB;label=32;scalar=64";
    class       polyBoundaryMesh;
    location    "constant/polyMesh";
    object      boundary;
}
// * * * * * * * * * * * * * * * * * * * * * * * * * * * * * * * * * * * * * //

12
(
    oversetPatch
    {
        type            overset;
        inGroups        1(overset);
        nFaces          0;
        startFace       57847;
    }
    seed
    {
        type            wall;
        inGroups        2(seed wall);
        nFaces          8308;
        startFace       57847;
    }
    procBoundary13to4
    {
        type            processor;
        inGroups        1(processor);
        nFaces          8;
        startFace       66155;
        matchTolerance  0.0001;
        transform       unknown;
        myProcNo        13;
        neighbProcNo    4;
    }
    procBoundary13to5
    {
        type            processor;
        inGroups        1(processor);
        nFaces          1572;
        startFace       66163;
        matchTolerance  0.0001;
        transform       unknown;
        myProcNo        13;
        neighbProcNo    5;
    }
    procBoundary13to6
    {
        type            processor;
        inGroups        1(processor);
        nFaces          156;
        startFace       67735;
        matchTolerance  0.0001;
        transform       unknown;
        myProcNo        13;
        neighbProcNo    6;
    }
    procBoundary13to11
    {
        type            processor;
        inGroups        1(processor);
        nFaces          4;
        startFace       67891;
        matchTolerance  0.0001;
        transform       unknown;
        myProcNo        13;
        neighbProcNo    11;
    }
    procBoundary13to12
    {
        type            processor;
        inGroups        1(processor);
        nFaces          26;
        startFace       67895;
        matchTolerance  0.0001;
        transform       unknown;
        myProcNo        13;
        neighbProcNo    12;
    }
    procBoundary13to15
    {
        type            processor;
        inGroups        1(processor);
        nFaces          246;
        startFace       67921;
        matchTolerance  0.0001;
        transform       unknown;
        myProcNo        13;
        neighbProcNo    15;
    }
    procBoundary13to19
    {
        type            processor;
        inGroups        1(processor);
        nFaces          356;
        startFace       68167;
        matchTolerance  0.0001;
        transform       unknown;
        myProcNo        13;
        neighbProcNo    19;
    }
    procBoundary13to21
    {
        type            processor;
        inGroups        1(processor);
        nFaces          1808;
        startFace       68523;
        matchTolerance  0.0001;
        transform       unknown;
        myProcNo        13;
        neighbProcNo    21;
    }
    procBoundary13to27
    {
        type            processor;
        inGroups        1(processor);
        nFaces          10;
        startFace       70331;
        matchTolerance  0.0001;
        transform       unknown;
        myProcNo        13;
        neighbProcNo    27;
    }
    procBoundary13to29
    {
        type            processor;
        inGroups        1(processor);
        nFaces          5;
        startFace       70341;
        matchTolerance  0.0001;
        transform       unknown;
        myProcNo        13;
        neighbProcNo    29;
    }
)

// ************************************************************************* //
