/*--------------------------------*- C++ -*----------------------------------*\
| =========                 |                                                 |
| \\      /  F ield         | OpenFOAM: The Open Source CFD Toolbox           |
|  \\    /   O peration     | Version:  2406                                  |
|   \\  /    A nd           | Website:  www.openfoam.com                      |
|    \\/     M anipulation  |                                                 |
\*---------------------------------------------------------------------------*/
FoamFile
{
    version     2.0;
    format      binary;
    arch        "LSB;label=32;scalar=64";
    class       polyBoundaryMesh;
    location    "constant/polyMesh";
    object      boundary;
}
// * * * * * * * * * * * * * * * * * * * * * * * * * * * * * * * * * * * * * //

10
(
    oversetPatch
    {
        type            overset;
        inGroups        1(overset);
        nFaces          0;
        startFace       60771;
    }
    seed
    {
        type            wall;
        inGroups        2(seed wall);
        nFaces          4297;
        startFace       60771;
    }
    procBoundary14to6
    {
        type            processor;
        inGroups        1(processor);
        nFaces          1228;
        startFace       65068;
        matchTolerance  0.0001;
        transform       unknown;
        myProcNo        14;
        neighbProcNo    6;
    }
    procBoundary14to12
    {
        type            processor;
        inGroups        1(processor);
        nFaces          691;
        startFace       66296;
        matchTolerance  0.0001;
        transform       unknown;
        myProcNo        14;
        neighbProcNo    12;
    }
    procBoundary14to15
    {
        type            processor;
        inGroups        1(processor);
        nFaces          6;
        startFace       66987;
        matchTolerance  0.0001;
        transform       unknown;
        myProcNo        14;
        neighbProcNo    15;
    }
    procBoundary14to20
    {
        type            processor;
        inGroups        1(processor);
        nFaces          1084;
        startFace       66993;
        matchTolerance  0.0001;
        transform       unknown;
        myProcNo        14;
        neighbProcNo    20;
    }
    procBoundary14to21
    {
        type            processor;
        inGroups        1(processor);
        nFaces          92;
        startFace       68077;
        matchTolerance  0.0001;
        transform       unknown;
        myProcNo        14;
        neighbProcNo    21;
    }
    procBoundary14to22
    {
        type            processor;
        inGroups        1(processor);
        nFaces          1521;
        startFace       68169;
        matchTolerance  0.0001;
        transform       unknown;
        myProcNo        14;
        neighbProcNo    22;
    }
    procBoundary14to23
    {
        type            processor;
        inGroups        1(processor);
        nFaces          11;
        startFace       69690;
        matchTolerance  0.0001;
        transform       unknown;
        myProcNo        14;
        neighbProcNo    23;
    }
    procBoundary14to29
    {
        type            processor;
        inGroups        1(processor);
        nFaces          31;
        startFace       69701;
        matchTolerance  0.0001;
        transform       unknown;
        myProcNo        14;
        neighbProcNo    29;
    }
)

// ************************************************************************* //
