/*--------------------------------*- C++ -*----------------------------------*\
| =========                 |                                                 |
| \\      /  F ield         | OpenFOAM: The Open Source CFD Toolbox           |
|  \\    /   O peration     | Version:  2406                                  |
|   \\  /    A nd           | Website:  www.openfoam.com                      |
|    \\/     M anipulation  |                                                 |
\*---------------------------------------------------------------------------*/
FoamFile
{
    version     2.0;
    format      ascii;
    arch        "LSB;label=32;scalar=64";
    class       polyBoundaryMesh;
    location    "constant/polyMesh";
    object      boundary;
}
// * * * * * * * * * * * * * * * * * * * * * * * * * * * * * * * * * * * * * //

10
(
    wall
    {
        type            patch;
        nFaces          2219;
        startFace       80624;
    }
    inlet
    {
        type            wall;
        inGroups        1(wall);
        nFaces          0;
        startFace       82843;
    }
    outlet
    {
        type            wall;
        inGroups        1(wall);
        nFaces          625;
        startFace       82843;
    }
    oversetPatch
    {
        type            overset;
        inGroups        1(overset);
        nFaces          0;
        startFace       83468;
    }
    seed
    {
        type            wall;
        inGroups        2(seed wall);
        nFaces          0;
        startFace       83468;
    }
    procBoundary31to17
    {
        type            processor;
        inGroups        1(processor);
        nFaces          25;
        startFace       83468;
        matchTolerance  0.0001;
        transform       unknown;
        myProcNo        31;
        neighbProcNo    17;
    }
    procBoundary31to23
    {
        type            processor;
        inGroups        1(processor);
        nFaces          669;
        startFace       83493;
        matchTolerance  0.0001;
        transform       unknown;
        myProcNo        31;
        neighbProcNo    23;
    }
    procBoundary31to25
    {
        type            processor;
        inGroups        1(processor);
        nFaces          1100;
        startFace       84162;
        matchTolerance  0.0001;
        transform       unknown;
        myProcNo        31;
        neighbProcNo    25;
    }
    procBoundary31to29
    {
        type            processor;
        inGroups        1(processor);
        nFaces          2;
        startFace       85262;
        matchTolerance  0.0001;
        transform       unknown;
        myProcNo        31;
        neighbProcNo    29;
    }
    procBoundary31to30
    {
        type            processor;
        inGroups        1(processor);
        nFaces          1107;
        startFace       85264;
        matchTolerance  0.0001;
        transform       unknown;
        myProcNo        31;
        neighbProcNo    30;
    }
)

// ************************************************************************* //
