/*--------------------------------*- C++ -*----------------------------------*\
| =========                 |                                                 |
| \\      /  F ield         | OpenFOAM: The Open Source CFD Toolbox           |
|  \\    /   O peration     | Version:  2406                                  |
|   \\  /    A nd           | Website:  www.openfoam.com                      |
|    \\/     M anipulation  |                                                 |
\*---------------------------------------------------------------------------*/
FoamFile
{
    version     2.0;
    format      ascii;
    arch        "LSB;label=32;scalar=64";
    class       polyBoundaryMesh;
    location    "constant/polyMesh";
    object      boundary;
}
// * * * * * * * * * * * * * * * * * * * * * * * * * * * * * * * * * * * * * //

10
(
    wall
    {
        type            wall;
        inGroups        1(wall);
        nFaces          1350;
        startFace       85565;
    }
    inlet
    {
        type            patch;
        nFaces          0;
        startFace       86915;
    }
    outlet
    {
        type            patch;
        nFaces          225;
        startFace       86915;
    }
    oversetPatch
    {
        type            overset;
        inGroups        1(overset);
        nFaces          1575;
        startFace       87140;
    }
    seed
    {
        type            wall;
        inGroups        2(seed wall);
        nFaces          2762;
        startFace       88715;
    }
    procBoundary6to0
    {
        type            processor;
        inGroups        1(processor);
        nFaces          3206;
        startFace       91477;
        matchTolerance  0.0001;
        transform       unknown;
        myProcNo        6;
        neighbProcNo    0;
    }
    procBoundary6to3
    {
        type            processor;
        inGroups        1(processor);
        nFaces          268;
        startFace       94683;
        matchTolerance  0.0001;
        transform       unknown;
        myProcNo        6;
        neighbProcNo    3;
    }
    procBoundary6to7
    {
        type            processor;
        inGroups        1(processor);
        nFaces          138;
        startFace       94951;
        matchTolerance  0.0001;
        transform       unknown;
        myProcNo        6;
        neighbProcNo    7;
    }
    procBoundary6to8
    {
        type            processor;
        inGroups        1(processor);
        nFaces          1348;
        startFace       95089;
        matchTolerance  0.0001;
        transform       unknown;
        myProcNo        6;
        neighbProcNo    8;
    }
    procBoundary6to9
    {
        type            processor;
        inGroups        1(processor);
        nFaces          1653;
        startFace       96437;
        matchTolerance  0.0001;
        transform       unknown;
        myProcNo        6;
        neighbProcNo    9;
    }
)

// ************************************************************************* //
