/*--------------------------------*- C++ -*----------------------------------*\
| =========                 |                                                 |
| \\      /  F ield         | OpenFOAM: The Open Source CFD Toolbox           |
|  \\    /   O peration     | Version:  2406                                  |
|   \\  /    A nd           | Website:  www.openfoam.com                      |
|    \\/     M anipulation  |                                                 |
\*---------------------------------------------------------------------------*/
FoamFile
{
    version     2.0;
    format      ascii;
    arch        "LSB;label=32;scalar=64";
    class       polyBoundaryMesh;
    location    "constant/polyMesh";
    object      boundary;
}
// * * * * * * * * * * * * * * * * * * * * * * * * * * * * * * * * * * * * * //

11
(
    wall
    {
        type            patch;
        nFaces          1200;
        startFace       80032;
    }
    inlet
    {
        type            wall;
        inGroups        1(wall);
        nFaces          625;
        startFace       81232;
    }
    outlet
    {
        type            wall;
        inGroups        1(wall);
        nFaces          0;
        startFace       81857;
    }
    oversetPatch
    {
        type            overset;
        inGroups        1(overset);
        nFaces          1651;
        startFace       81857;
    }
    seed
    {
        type            wall;
        inGroups        2(seed wall);
        nFaces          0;
        startFace       83508;
    }
    procBoundary6to0
    {
        type            processor;
        inGroups        1(processor);
        nFaces          592;
        startFace       83508;
        matchTolerance  0.0001;
        transform       unknown;
        myProcNo        6;
        neighbProcNo    0;
    }
    procBoundary6to4
    {
        type            processor;
        inGroups        1(processor);
        nFaces          560;
        startFace       84100;
        matchTolerance  0.0001;
        transform       unknown;
        myProcNo        6;
        neighbProcNo    4;
    }
    procBoundary6to5
    {
        type            processor;
        inGroups        1(processor);
        nFaces          32;
        startFace       84660;
        matchTolerance  0.0001;
        transform       unknown;
        myProcNo        6;
        neighbProcNo    5;
    }
    procBoundary6to7
    {
        type            processor;
        inGroups        1(processor);
        nFaces          1111;
        startFace       84692;
        matchTolerance  0.0001;
        transform       unknown;
        myProcNo        6;
        neighbProcNo    7;
    }
    procBoundary6to14
    {
        type            processor;
        inGroups        1(processor);
        nFaces          1232;
        startFace       85803;
        matchTolerance  0.0001;
        transform       unknown;
        myProcNo        6;
        neighbProcNo    14;
    }
    procBoundary6to15
    {
        type            processor;
        inGroups        1(processor);
        nFaces          12;
        startFace       87035;
        matchTolerance  0.0001;
        transform       unknown;
        myProcNo        6;
        neighbProcNo    15;
    }
)

// ************************************************************************* //
